GLUE0231
     RDKit          3D

 47 50  0  0  0  0  0  0  0  0999 V2000
   -3.5092    0.8738   -1.5641 C   0  0  0  0  0  0  0  0  0  0  0  0
   -4.2971    0.8990   -0.2846 C   0  0  0  0  0  0  0  0  0  0  0  0
   -5.1557    1.9835   -0.0400 C   0  0  0  0  0  0  0  0  0  0  0  0
   -5.9316    2.0370    1.1206 C   0  0  0  0  0  0  0  0  0  0  0  0
   -5.8629    1.0089    2.0573 C   0  0  0  0  0  0  0  0  0  0  0  0
   -5.0040   -0.0671    1.8421 C   0  0  0  0  0  0  0  0  0  0  0  0
   -4.2071   -0.1147    0.6890 C   0  0  0  0  0  0  0  0  0  0  0  0
   -3.2952   -1.2812    0.5592 C   0  0  0  0  0  0  0  0  0  0  0  0
   -3.7683   -2.4068    0.6522 O   0  0  0  0  0  0  0  0  0  0  0  0
   -1.9699   -0.9440    0.3885 N   0  0  0  0  0  0  0  0  0  0  0  0
   -0.8718   -1.8152    0.2408 C   0  0  0  0  0  0  0  0  0  0  0  0
   -0.9572   -3.2092    0.2381 C   0  0  0  0  0  0  0  0  0  0  0  0
    0.1983   -4.0068    0.0930 C   0  0  0  0  0  0  0  0  0  0  0  0
    1.4640   -3.4312   -0.0542 C   0  0  0  0  0  0  0  0  0  0  0  0
    1.5500   -2.0521   -0.0594 C   0  0  0  0  0  0  0  0  0  0  0  0
    0.3985   -1.2761    0.0833 C   0  0  0  0  0  0  0  0  0  0  0  0
    0.8028    0.1333    0.0298 C   0  0  0  0  0  0  0  0  0  0  0  0
    0.0356    1.0713    0.1507 O   0  0  0  0  0  0  0  0  0  0  0  0
    2.1723    0.1619   -0.1911 N   0  0  0  0  0  0  0  0  0  0  0  0
    2.9552    1.3903   -0.0666 C   0  0  0  0  0  0  0  0  0  0  0  0
    3.8638    1.6544   -1.2680 C   0  0  0  0  0  0  0  0  0  0  0  0
    5.2388    1.0308   -1.1025 C   0  0  0  0  0  0  0  0  0  0  0  0
    5.8736    1.4250    0.2085 C   0  0  0  0  0  0  0  0  0  0  0  0
    7.0777    1.3005    0.4121 O   0  0  0  0  0  0  0  0  0  0  0  0
    5.0274    1.8201    1.2084 N   0  0  0  0  0  0  0  0  0  0  0  0
    3.7146    1.4299    1.2709 C   0  0  0  0  0  0  0  0  0  0  0  0
    3.2180    1.1021    2.3462 O   0  0  0  0  0  0  0  0  0  0  0  0
    2.7495   -1.1753   -0.1905 C   0  0  0  0  0  0  0  0  0  0  0  0
   -3.4234   -0.1441   -1.9572 H   0  0  0  0  0  0  0  0  0  0  0  0
   -4.0059    1.4664   -2.3404 H   0  0  0  0  0  0  0  0  0  0  0  0
   -2.5105    1.2904   -1.4044 H   0  0  0  0  0  0  0  0  0  0  0  0
   -5.2354    2.7937   -0.7626 H   0  0  0  0  0  0  0  0  0  0  0  0
   -6.5973    2.8802    1.2887 H   0  0  0  0  0  0  0  0  0  0  0  0
   -6.4747    1.0456    2.9549 H   0  0  0  0  0  0  0  0  0  0  0  0
   -4.9480   -0.8691    2.5755 H   0  0  0  0  0  0  0  0  0  0  0  0
   -1.7335    0.0499    0.4069 H   0  0  0  0  0  0  0  0  0  0  0  0
   -1.9114   -3.7166    0.3521 H   0  0  0  0  0  0  0  0  0  0  0  0
    0.0948   -5.0906    0.1008 H   0  0  0  0  0  0  0  0  0  0  0  0
    2.3447   -4.0571   -0.1588 H   0  0  0  0  0  0  0  0  0  0  0  0
    2.2412    2.2230   -0.0190 H   0  0  0  0  0  0  0  0  0  0  0  0
    3.3985    1.3085   -2.1982 H   0  0  0  0  0  0  0  0  0  0  0  0
    3.9955    2.7406   -1.3670 H   0  0  0  0  0  0  0  0  0  0  0  0
    5.8904    1.3708   -1.9148 H   0  0  0  0  0  0  0  0  0  0  0  0
    5.1912   -0.0610   -1.1414 H   0  0  0  0  0  0  0  0  0  0  0  0
    5.4854    1.8656    2.1103 H   0  0  0  0  0  0  0  0  0  0  0  0
    3.2679   -1.3447   -1.1373 H   0  0  0  0  0  0  0  0  0  0  0  0
    3.4204   -1.2935    0.6647 H   0  0  0  0  0  0  0  0  0  0  0  0
  1  2  1  0
  2  3  2  0
  3  4  1  0
  4  5  2  0
  5  6  1  0
  6  7  2  0
  7  8  1  0
  8  9  2  0
  8 10  1  0
 10 11  1  0
 11 12  1  0
 12 13  2  0
 13 14  1  0
 14 15  2  0
 15 16  1  0
 16 17  1  0
 17 18  2  0
 17 19  1  0
 19 20  1  0
 20 21  1  0
 21 22  1  0
 22 23  1  0
 23 24  2  0
 23 25  1  0
 25 26  1  0
 26 27  2  0
 19 28  1  0
  7  2  1  0
 16 11  2  0
 26 20  1  0
 28 15  1  0
  1 29  1  0
  1 30  1  0
  1 31  1  0
  3 32  1  0
  4 33  1  0
  5 34  1  0
  6 35  1  0
 10 36  1  0
 12 37  1  0
 13 38  1  0
 14 39  1  0
 20 40  1  0
 21 41  1  0
 21 42  1  0
 22 43  1  0
 22 44  1  0
 25 45  1  0
 28 46  1  0
 28 47  1  0
M  END
>  <linker>  (1) 
amide

>  <mw>  (1) 
377.4

>  <clogp>  (1) 
2.01

>  <tpsa>  (1) 
95.6

>  <cns_mpo_proxy>  (1) 
3.5

>  <qed>  (1) 
0.8

$$$$
GLUE0246
     RDKit          3D

 47 50  0  0  0  0  0  0  0  0999 V2000
    6.7500   -1.1547    2.5525 C   0  0  0  0  0  0  0  0  0  0  0  0
    5.7448   -0.5576    1.6122 C   0  0  0  0  0  0  0  0  0  0  0  0
    6.1157   -0.2069    0.3090 C   0  0  0  0  0  0  0  0  0  0  0  0
    5.1885    0.3795   -0.5562 C   0  0  0  0  0  0  0  0  0  0  0  0
    3.8776    0.6243   -0.1292 C   0  0  0  0  0  0  0  0  0  0  0  0
    2.9254    1.2554   -1.0917 C   0  0  0  0  0  0  0  0  0  0  0  0
    3.3761    1.9778   -1.9739 O   0  0  0  0  0  0  0  0  0  0  0  0
    1.5973    0.9280   -0.9072 N   0  0  0  0  0  0  0  0  0  0  0  0
    0.4832    1.4039   -1.6300 C   0  0  0  0  0  0  0  0  0  0  0  0
    0.5394    2.3542   -2.6515 C   0  0  0  0  0  0  0  0  0  0  0  0
   -0.6334    2.7773   -3.3141 C   0  0  0  0  0  0  0  0  0  0  0  0
   -1.8880    2.2640   -2.9700 C   0  0  0  0  0  0  0  0  0  0  0  0
   -1.9464    1.3235   -1.9596 C   0  0  0  0  0  0  0  0  0  0  0  0
   -0.7778    0.9137   -1.3150 C   0  0  0  0  0  0  0  0  0  0  0  0
   -1.1539   -0.0735   -0.2966 C   0  0  0  0  0  0  0  0  0  0  0  0
   -0.3739   -0.5874    0.4855 O   0  0  0  0  0  0  0  0  0  0  0  0
   -2.5189   -0.2835   -0.4127 N   0  0  0  0  0  0  0  0  0  0  0  0
   -3.2781   -1.0124    0.5967 C   0  0  0  0  0  0  0  0  0  0  0  0
   -4.3966   -1.8549   -0.0090 C   0  0  0  0  0  0  0  0  0  0  0  0
   -5.0834   -2.6493    1.0916 C   0  0  0  0  0  0  0  0  0  0  0  0
   -5.5934   -1.7392    2.1845 C   0  0  0  0  0  0  0  0  0  0  0  0
   -6.6331   -1.9655    2.7958 O   0  0  0  0  0  0  0  0  0  0  0  0
   -4.8213   -0.6449    2.4817 N   0  0  0  0  0  0  0  0  0  0  0  0
   -3.8752   -0.0751    1.6602 C   0  0  0  0  0  0  0  0  0  0  0  0
   -3.5608    1.1043    1.8011 O   0  0  0  0  0  0  0  0  0  0  0  0
   -3.1288    0.6271   -1.3739 C   0  0  0  0  0  0  0  0  0  0  0  0
    3.5119    0.3032    1.1843 C   0  0  0  0  0  0  0  0  0  0  0  0
    4.4425   -0.2836    2.0476 C   0  0  0  0  0  0  0  0  0  0  0  0
    7.2743   -0.3608    3.0933 H   0  0  0  0  0  0  0  0  0  0  0  0
    7.4845   -1.7572    2.0077 H   0  0  0  0  0  0  0  0  0  0  0  0
    6.2624   -1.8150    3.2773 H   0  0  0  0  0  0  0  0  0  0  0  0
    7.1298   -0.3851   -0.0423 H   0  0  0  0  0  0  0  0  0  0  0  0
    5.4921    0.6463   -1.5668 H   0  0  0  0  0  0  0  0  0  0  0  0
    1.3718    0.2265   -0.2021 H   0  0  0  0  0  0  0  0  0  0  0  0
    1.4826    2.7964   -2.9605 H   0  0  0  0  0  0  0  0  0  0  0  0
   -0.5525    3.5220   -4.1041 H   0  0  0  0  0  0  0  0  0  0  0  0
   -2.7821    2.6045   -3.4826 H   0  0  0  0  0  0  0  0  0  0  0  0
   -2.5756   -1.6673    1.1290 H   0  0  0  0  0  0  0  0  0  0  0  0
   -3.9951   -2.5380   -0.7664 H   0  0  0  0  0  0  0  0  0  0  0  0
   -5.1335   -1.2129   -0.5085 H   0  0  0  0  0  0  0  0  0  0  0  0
   -4.3975   -3.3752    1.5419 H   0  0  0  0  0  0  0  0  0  0  0  0
   -5.9322   -3.1979    0.6694 H   0  0  0  0  0  0  0  0  0  0  0  0
   -5.2211   -0.0186    3.1684 H   0  0  0  0  0  0  0  0  0  0  0  0
   -3.6745    0.0473   -2.1231 H   0  0  0  0  0  0  0  0  0  0  0  0
   -3.7860    1.3331   -0.8593 H   0  0  0  0  0  0  0  0  0  0  0  0
    2.5187    0.5239    1.5665 H   0  0  0  0  0  0  0  0  0  0  0  0
    4.1445   -0.5197    3.0674 H   0  0  0  0  0  0  0  0  0  0  0  0
  1  2  1  0
  2  3  1  0
  3  4  2  0
  4  5  1  0
  5  6  1  0
  6  7  2  0
  6  8  1  0
  8  9  1  0
  9 10  1  0
 10 11  2  0
 11 12  1  0
 12 13  2  0
 13 14  1  0
 14 15  1  0
 15 16  2  0
 15 17  1  0
 17 18  1  0
 18 19  1  0
 19 20  1  0
 20 21  1  0
 21 22  2  0
 21 23  1  0
 23 24  1  0
 24 25  2  0
 17 26  1  0
  5 27  2  0
 27 28  1  0
 28  2  2  0
 14  9  2  0
 24 18  1  0
 26 13  1  0
  1 29  1  0
  1 30  1  0
  1 31  1  0
  3 32  1  0
  4 33  1  0
  8 34  1  0
 10 35  1  0
 11 36  1  0
 12 37  1  0
 18 38  1  0
 19 39  1  0
 19 40  1  0
 20 41  1  0
 20 42  1  0
 23 43  1  0
 26 44  1  0
 26 45  1  0
 27 46  1  0
 28 47  1  0
M  END
>  <linker>  (2) 
amide

>  <mw>  (2) 
377.4

>  <clogp>  (2) 
2.01

>  <tpsa>  (2) 
95.6

>  <cns_mpo_proxy>  (2) 
3.5

>  <qed>  (2) 
0.8

$$$$
GLUE0692
     RDKit          3D

 47 50  0  0  0  0  0  0  0  0999 V2000
   -6.8741    2.0121   -1.2363 C   0  0  0  0  0  0  0  0  0  0  0  0
   -5.6933    1.5164   -0.4556 C   0  0  0  0  0  0  0  0  0  0  0  0
   -5.5122    1.9037    0.8769 C   0  0  0  0  0  0  0  0  0  0  0  0
   -4.4390    1.4079    1.6189 C   0  0  0  0  0  0  0  0  0  0  0  0
   -3.5340    0.5176    1.0377 C   0  0  0  0  0  0  0  0  0  0  0  0
   -3.6987    0.1241   -0.2969 C   0  0  0  0  0  0  0  0  0  0  0  0
   -2.7681   -0.8337   -0.9673 C   0  0  0  0  0  0  0  0  0  0  0  0
   -3.2040   -1.5403   -1.8693 O   0  0  0  0  0  0  0  0  0  0  0  0
   -1.4653   -0.8085   -0.5112 N   0  0  0  0  0  0  0  0  0  0  0  0
   -0.3905   -1.6225   -0.9276 C   0  0  0  0  0  0  0  0  0  0  0  0
   -0.4821   -2.6445   -1.8749 C   0  0  0  0  0  0  0  0  0  0  0  0
    0.6484   -3.4156   -2.2217 C   0  0  0  0  0  0  0  0  0  0  0  0
    1.8934   -3.1868   -1.6278 C   0  0  0  0  0  0  0  0  0  0  0  0
    1.9866   -2.1752   -0.6917 C   0  0  0  0  0  0  0  0  0  0  0  0
    0.8619   -1.4194   -0.3615 C   0  0  0  0  0  0  0  0  0  0  0  0
    1.2674   -0.4416    0.6543 C   0  0  0  0  0  0  0  0  0  0  0  0
    0.4945    0.3124    1.2178 O   0  0  0  0  0  0  0  0  0  0  0  0
    2.6392   -0.5656    0.8277 N   0  0  0  0  0  0  0  0  0  0  0  0
    3.3656    0.0995    1.9157 C   0  0  0  0  0  0  0  0  0  0  0  0
    3.2765    1.6292    1.8483 C   0  0  0  0  0  0  0  0  0  0  0  0
    4.0406    2.1503    0.6405 C   0  0  0  0  0  0  0  0  0  0  0  0
    5.4752    1.6840    0.6634 C   0  0  0  0  0  0  0  0  0  0  0  0
    6.3532    2.2256   -0.0017 O   0  0  0  0  0  0  0  0  0  0  0  0
    5.7511    0.5725    1.4182 N   0  0  0  0  0  0  0  0  0  0  0  0
    4.8484   -0.3032    1.9732 C   0  0  0  0  0  0  0  0  0  0  0  0
    5.2221   -1.4094    2.3620 O   0  0  0  0  0  0  0  0  0  0  0  0
    3.1584   -1.7332    0.1181 C   0  0  0  0  0  0  0  0  0  0  0  0
   -4.7893    0.6129   -1.0310 C   0  0  0  0  0  0  0  0  0  0  0  0
   -6.6697    1.9950   -2.3121 H   0  0  0  0  0  0  0  0  0  0  0  0
   -7.7466    1.3835   -1.0347 H   0  0  0  0  0  0  0  0  0  0  0  0
   -7.1104    3.0469   -0.9673 H   0  0  0  0  0  0  0  0  0  0  0  0
   -6.2145    2.5881    1.3490 H   0  0  0  0  0  0  0  0  0  0  0  0
   -4.3143    1.7072    2.6569 H   0  0  0  0  0  0  0  0  0  0  0  0
   -2.7271    0.1249    1.6505 H   0  0  0  0  0  0  0  0  0  0  0  0
   -1.2137   -0.0987    0.1761 H   0  0  0  0  0  0  0  0  0  0  0  0
   -1.4223   -2.8764   -2.3676 H   0  0  0  0  0  0  0  0  0  0  0  0
    0.5404   -4.2058   -2.9630 H   0  0  0  0  0  0  0  0  0  0  0  0
    2.7523   -3.7942   -1.8961 H   0  0  0  0  0  0  0  0  0  0  0  0
    2.9029   -0.2284    2.8549 H   0  0  0  0  0  0  0  0  0  0  0  0
    2.2407    1.9775    1.8068 H   0  0  0  0  0  0  0  0  0  0  0  0
    3.7144    2.0547    2.7614 H   0  0  0  0  0  0  0  0  0  0  0  0
    4.0358    3.2456    0.6535 H   0  0  0  0  0  0  0  0  0  0  0  0
    3.5830    1.8151   -0.2959 H   0  0  0  0  0  0  0  0  0  0  0  0
    6.7094    0.2518    1.3834 H   0  0  0  0  0  0  0  0  0  0  0  0
    3.4339   -2.5098    0.8374 H   0  0  0  0  0  0  0  0  0  0  0  0
    4.0033   -1.4327   -0.5074 H   0  0  0  0  0  0  0  0  0  0  0  0
   -4.9294    0.2872   -2.0612 H   0  0  0  0  0  0  0  0  0  0  0  0
  1  2  1  0
  2  3  2  0
  3  4  1  0
  4  5  2  0
  5  6  1  0
  6  7  1  0
  7  8  2  0
  7  9  1  0
  9 10  1  0
 10 11  1  0
 11 12  2  0
 12 13  1  0
 13 14  2  0
 14 15  1  0
 15 16  1  0
 16 17  2  0
 16 18  1  0
 18 19  1  0
 19 20  1  0
 20 21  1  0
 21 22  1  0
 22 23  2  0
 22 24  1  0
 24 25  1  0
 25 26  2  0
 18 27  1  0
  6 28  2  0
 28  2  1  0
 15 10  2  0
 25 19  1  0
 27 14  1  0
  1 29  1  0
  1 30  1  0
  1 31  1  0
  3 32  1  0
  4 33  1  0
  5 34  1  0
  9 35  1  0
 11 36  1  0
 12 37  1  0
 13 38  1  0
 19 39  1  0
 20 40  1  0
 20 41  1  0
 21 42  1  0
 21 43  1  0
 24 44  1  0
 27 45  1  0
 27 46  1  0
 28 47  1  0
M  END
>  <linker>  (3) 
amide

>  <mw>  (3) 
377.4

>  <clogp>  (3) 
2.01

>  <tpsa>  (3) 
95.6

>  <cns_mpo_proxy>  (3) 
3.5

>  <qed>  (3) 
0.8

$$$$
GLUE0004
     RDKit          3D

 45 48  0  0  0  0  0  0  0  0999 V2000
   -7.4309   -0.4578   -2.0654 O   0  0  0  0  0  0  0  0  0  0  0  0
   -6.2968   -0.5586   -1.6077 C   0  0  0  0  0  0  0  0  0  0  0  0
   -5.1114    0.1477   -2.2182 C   0  0  0  0  0  0  0  0  0  0  0  0
   -4.0912    0.5285   -1.1576 C   0  0  0  0  0  0  0  0  0  0  0  0
   -3.6618   -0.7172   -0.3805 C   0  0  0  0  0  0  0  0  0  0  0  0
   -2.5911   -0.3974    0.5602 N   0  0  0  0  0  0  0  0  0  0  0  0
   -2.8124    0.1661    1.8864 C   0  0  0  0  0  0  0  0  0  0  0  0
   -1.4278    0.5210    2.3199 C   0  0  0  0  0  0  0  0  0  0  0  0
   -0.9946    1.0756    3.5090 C   0  0  0  0  0  0  0  0  0  0  0  0
    0.3751    1.3133    3.6595 C   0  0  0  0  0  0  0  0  0  0  0  0
    1.2909    1.0003    2.6319 C   0  0  0  0  0  0  0  0  0  0  0  0
    0.8553    0.4402    1.4284 C   0  0  0  0  0  0  0  0  0  0  0  0
    1.6961    0.1033    0.3528 N   0  0  0  0  0  0  0  0  0  0  0  0
    3.0548    0.2430    0.2556 C   0  0  0  0  0  0  0  0  0  0  0  0
    3.8073    0.6991    1.1055 O   0  0  0  0  0  0  0  0  0  0  0  0
    3.4503   -0.2244   -0.9933 O   0  0  0  0  0  0  0  0  0  0  0  0
    4.8266   -0.1704   -1.2369 C   0  0  0  0  0  0  0  0  0  0  0  0
    5.6895   -1.0714   -0.6143 C   0  0  0  0  0  0  0  0  0  0  0  0
    7.0498   -1.0297   -0.9175 C   0  0  0  0  0  0  0  0  0  0  0  0
    7.5307   -0.1037   -1.8467 C   0  0  0  0  0  0  0  0  0  0  0  0
    6.6529    0.7809   -2.4781 C   0  0  0  0  0  0  0  0  0  0  0  0
    5.2916    0.7450   -2.1788 C   0  0  0  0  0  0  0  0  0  0  0  0
   -0.5101    0.2126    1.3136 C   0  0  0  0  0  0  0  0  0  0  0  0
   -1.2610   -0.3436    0.1827 C   0  0  0  0  0  0  0  0  0  0  0  0
   -0.7683   -0.6553   -0.8862 O   0  0  0  0  0  0  0  0  0  0  0  0
   -4.8998   -1.3799    0.2459 C   0  0  0  0  0  0  0  0  0  0  0  0
   -4.9083   -1.9347    1.3423 O   0  0  0  0  0  0  0  0  0  0  0  0
   -6.0423   -1.3569   -0.5214 N   0  0  0  0  0  0  0  0  0  0  0  0
   -5.4668    1.0527   -2.7227 H   0  0  0  0  0  0  0  0  0  0  0  0
   -4.6689   -0.5131   -2.9717 H   0  0  0  0  0  0  0  0  0  0  0  0
   -3.2268    1.0047   -1.6352 H   0  0  0  0  0  0  0  0  0  0  0  0
   -4.5273    1.2681   -0.4736 H   0  0  0  0  0  0  0  0  0  0  0  0
   -3.2496   -1.4472   -1.0903 H   0  0  0  0  0  0  0  0  0  0  0  0
   -3.2480   -0.5852    2.5480 H   0  0  0  0  0  0  0  0  0  0  0  0
   -3.4456    1.0540    1.8068 H   0  0  0  0  0  0  0  0  0  0  0  0
   -1.6883    1.3203    4.3077 H   0  0  0  0  0  0  0  0  0  0  0  0
    0.7486    1.7480    4.5854 H   0  0  0  0  0  0  0  0  0  0  0  0
    2.3418    1.2115    2.8119 H   0  0  0  0  0  0  0  0  0  0  0  0
    1.2481   -0.2962   -0.4707 H   0  0  0  0  0  0  0  0  0  0  0  0
    5.3120   -1.7924    0.1041 H   0  0  0  0  0  0  0  0  0  0  0  0
    7.7358   -1.7177   -0.4305 H   0  0  0  0  0  0  0  0  0  0  0  0
    8.5921   -0.0727   -2.0800 H   0  0  0  0  0  0  0  0  0  0  0  0
    7.0311    1.4961   -3.2039 H   0  0  0  0  0  0  0  0  0  0  0  0
    4.6042    1.4251   -2.6718 H   0  0  0  0  0  0  0  0  0  0  0  0
   -6.8553   -1.7908   -0.1045 H   0  0  0  0  0  0  0  0  0  0  0  0
  1  2  2  0
  2  3  1  0
  3  4  1  0
  4  5  1  0
  5  6  1  0
  6  7  1  0
  7  8  1  0
  8  9  2  0
  9 10  1  0
 10 11  2  0
 11 12  1  0
 12 13  1  0
 13 14  1  0
 14 15  2  0
 14 16  1  0
 16 17  1  0
 17 18  2  0
 18 19  1  0
 19 20  2  0
 20 21  1  0
 21 22  2  0
 12 23  2  0
 23 24  1  0
 24 25  2  0
  5 26  1  0
 26 27  2  0
 26 28  1  0
 28  2  1  0
 24  6  1  0
 23  8  1  0
 22 17  1  0
  3 29  1  0
  3 30  1  0
  4 31  1  0
  4 32  1  0
  5 33  1  0
  7 34  1  0
  7 35  1  0
  9 36  1  0
 10 37  1  0
 11 38  1  0
 13 39  1  0
 18 40  1  0
 19 41  1  0
 20 42  1  0
 21 43  1  0
 22 44  1  0
 28 45  1  0
M  END
>  <linker>  (4) 
carbamate

>  <mw>  (4) 
379.37

>  <clogp>  (4) 
2.06

>  <tpsa>  (4) 
104.8

>  <cns_mpo_proxy>  (4) 
3.5

>  <qed>  (4) 
0.795

$$$$
GLUE1185
     RDKit          3D

 52 54  0  0  0  0  0  0  0  0999 V2000
   -4.9890   -0.2427   -1.3271 C   0  0  0  0  0  0  0  0  0  0  0  0
   -3.6547    0.2120   -0.7164 C   0  0  0  0  0  0  0  0  0  0  0  0
   -2.9565   -1.0225   -0.1183 C   0  0  0  0  0  0  0  0  0  0  0  0
   -3.5943   -1.9292    0.4086 O   0  0  0  0  0  0  0  0  0  0  0  0
   -1.5813   -0.9682   -0.2295 N   0  0  0  0  0  0  0  0  0  0  0  0
   -0.6365   -1.9124    0.2228 C   0  0  0  0  0  0  0  0  0  0  0  0
   -0.9479   -3.1066    0.8758 C   0  0  0  0  0  0  0  0  0  0  0  0
    0.0700   -3.9893    1.2981 C   0  0  0  0  0  0  0  0  0  0  0  0
    1.4205   -3.6996    1.0795 C   0  0  0  0  0  0  0  0  0  0  0  0
    1.7317   -2.5187    0.4336 C   0  0  0  0  0  0  0  0  0  0  0  0
    0.7138   -1.6580    0.0183 C   0  0  0  0  0  0  0  0  0  0  0  0
    1.3449   -0.4946   -0.6143 C   0  0  0  0  0  0  0  0  0  0  0  0
    0.7384    0.4767   -1.0291 O   0  0  0  0  0  0  0  0  0  0  0  0
    2.7110   -0.7125   -0.6026 N   0  0  0  0  0  0  0  0  0  0  0  0
    3.6755    0.3192   -0.9739 C   0  0  0  0  0  0  0  0  0  0  0  0
    3.9872    1.2243    0.2192 C   0  0  0  0  0  0  0  0  0  0  0  0
    4.8921    2.3632   -0.2215 C   0  0  0  0  0  0  0  0  0  0  0  0
    6.1542    1.8421   -0.8638 C   0  0  0  0  0  0  0  0  0  0  0  0
    7.2252    2.4357   -0.7863 O   0  0  0  0  0  0  0  0  0  0  0  0
    6.0422    0.6766   -1.5791 N   0  0  0  0  0  0  0  0  0  0  0  0
    4.9889   -0.2094   -1.5727 C   0  0  0  0  0  0  0  0  0  0  0  0
    5.1267   -1.3300   -2.0578 O   0  0  0  0  0  0  0  0  0  0  0  0
    3.0668   -1.9545    0.0738 C   0  0  0  0  0  0  0  0  0  0  0  0
   -3.7848    1.3983    0.3030 C   0  0  0  0  0  0  0  0  0  0  0  0
   -4.5082    2.5910   -0.3604 C   0  0  0  0  0  0  0  0  0  0  0  0
   -4.5752    1.0004    1.5645 C   0  0  0  0  0  0  0  0  0  0  0  0
   -2.3943    1.9014    0.7464 C   0  0  0  0  0  0  0  0  0  0  0  0
   -5.4426    0.5466   -1.9334 H   0  0  0  0  0  0  0  0  0  0  0  0
   -5.7100   -0.5502   -0.5639 H   0  0  0  0  0  0  0  0  0  0  0  0
   -4.8333   -1.1040   -1.9876 H   0  0  0  0  0  0  0  0  0  0  0  0
   -3.0400    0.5551   -1.5611 H   0  0  0  0  0  0  0  0  0  0  0  0
   -1.1790   -0.1511   -0.6911 H   0  0  0  0  0  0  0  0  0  0  0  0
   -1.9772   -3.3906    1.0769 H   0  0  0  0  0  0  0  0  0  0  0  0
   -0.2092   -4.9127    1.8031 H   0  0  0  0  0  0  0  0  0  0  0  0
    2.1928   -4.3879    1.4089 H   0  0  0  0  0  0  0  0  0  0  0  0
    3.2030    0.9257   -1.7587 H   0  0  0  0  0  0  0  0  0  0  0  0
    4.4796    0.6470    1.0125 H   0  0  0  0  0  0  0  0  0  0  0  0
    3.0644    1.6339    0.6465 H   0  0  0  0  0  0  0  0  0  0  0  0
    4.3843    3.0141   -0.9416 H   0  0  0  0  0  0  0  0  0  0  0  0
    5.1684    2.9663    0.6499 H   0  0  0  0  0  0  0  0  0  0  0  0
    6.9052    0.3255   -1.9726 H   0  0  0  0  0  0  0  0  0  0  0  0
    3.6589   -1.7304    0.9654 H   0  0  0  0  0  0  0  0  0  0  0  0
    3.6001   -2.6171   -0.6109 H   0  0  0  0  0  0  0  0  0  0  0  0
   -4.5086    3.4696    0.2952 H   0  0  0  0  0  0  0  0  0  0  0  0
   -4.0176    2.8774   -1.2971 H   0  0  0  0  0  0  0  0  0  0  0  0
   -5.5555    2.3606   -0.5812 H   0  0  0  0  0  0  0  0  0  0  0  0
   -4.0888    0.1822    2.1052 H   0  0  0  0  0  0  0  0  0  0  0  0
   -4.6528    1.8450    2.2594 H   0  0  0  0  0  0  0  0  0  0  0  0
   -5.5961    0.6879    1.3245 H   0  0  0  0  0  0  0  0  0  0  0  0
   -1.8646    1.1582    1.3506 H   0  0  0  0  0  0  0  0  0  0  0  0
   -1.7699    2.1515   -0.1183 H   0  0  0  0  0  0  0  0  0  0  0  0
   -2.4778    2.8043    1.3625 H   0  0  0  0  0  0  0  0  0  0  0  0
  1  2  1  0
  2  3  1  0
  3  4  2  0
  3  5  1  0
  5  6  1  0
  6  7  1  0
  7  8  2  0
  8  9  1  0
  9 10  2  0
 10 11  1  0
 11 12  1  0
 12 13  2  0
 12 14  1  0
 14 15  1  0
 15 16  1  0
 16 17  1  0
 17 18  1  0
 18 19  2  0
 18 20  1  0
 20 21  1  0
 21 22  2  0
 14 23  1  0
  2 24  1  0
 24 25  1  0
 24 26  1  0
 24 27  1  0
 11  6  2  0
 21 15  1  0
 23 10  1  0
  1 28  1  0
  1 29  1  0
  1 30  1  0
  2 31  1  0
  5 32  1  0
  7 33  1  0
  8 34  1  0
  9 35  1  0
 15 36  1  0
 16 37  1  0
 16 38  1  0
 17 39  1  0
 17 40  1  0
 20 41  1  0
 23 42  1  0
 23 43  1  0
 25 44  1  0
 25 45  1  0
 25 46  1  0
 26 47  1  0
 26 48  1  0
 26 49  1  0
 27 50  1  0
 27 51  1  0
 27 52  1  0
M  END
>  <linker>  (5) 
amide

>  <mw>  (5) 
371.44

>  <clogp>  (5) 
2.07

>  <tpsa>  (5) 
95.6

>  <cns_mpo_proxy>  (5) 
3.5

>  <qed>  (5) 
0.795

$$$$
GLUE0870
     RDKit          3D

 52 54  0  0  0  0  0  0  0  0999 V2000
   -5.1268    1.2133   -2.2180 C   0  0  0  0  0  0  0  0  0  0  0  0
   -5.4592    1.0510   -0.7256 C   0  0  0  0  0  0  0  0  0  0  0  0
   -6.9520    0.6903   -0.5939 C   0  0  0  0  0  0  0  0  0  0  0  0
   -5.2149    2.3866   -0.0042 C   0  0  0  0  0  0  0  0  0  0  0  0
   -4.6275   -0.0925   -0.0865 C   0  0  0  0  0  0  0  0  0  0  0  0
   -3.1072    0.0910   -0.1227 C   0  0  0  0  0  0  0  0  0  0  0  0
   -2.3699   -1.0751    0.5235 C   0  0  0  0  0  0  0  0  0  0  0  0
   -2.9541   -2.0345    1.0137 O   0  0  0  0  0  0  0  0  0  0  0  0
   -1.0004   -0.8912    0.4774 N   0  0  0  0  0  0  0  0  0  0  0  0
    0.0055   -1.7551    0.9570 C   0  0  0  0  0  0  0  0  0  0  0  0
   -0.2257   -2.9902    1.5662 C   0  0  0  0  0  0  0  0  0  0  0  0
    0.8481   -3.7937    2.0077 C   0  0  0  0  0  0  0  0  0  0  0  0
    2.1757   -3.3831    1.8505 C   0  0  0  0  0  0  0  0  0  0  0  0
    2.4071   -2.1594    1.2525 C   0  0  0  0  0  0  0  0  0  0  0  0
    1.3349   -1.3751    0.8229 C   0  0  0  0  0  0  0  0  0  0  0  0
    1.8874   -0.1482    0.2379 C   0  0  0  0  0  0  0  0  0  0  0  0
    1.2184    0.7295   -0.2778 O   0  0  0  0  0  0  0  0  0  0  0  0
    3.2631   -0.2007    0.3966 N   0  0  0  0  0  0  0  0  0  0  0  0
    4.1567    0.7273   -0.2869 C   0  0  0  0  0  0  0  0  0  0  0  0
    5.3608    1.1145    0.5662 C   0  0  0  0  0  0  0  0  0  0  0  0
    6.1958    2.1462   -0.1769 C   0  0  0  0  0  0  0  0  0  0  0  0
    6.6106    1.6354   -1.5370 C   0  0  0  0  0  0  0  0  0  0  0  0
    7.6955    1.9115   -2.0395 O   0  0  0  0  0  0  0  0  0  0  0  0
    5.6999    0.8552   -2.2031 N   0  0  0  0  0  0  0  0  0  0  0  0
    4.6532    0.1682   -1.6312 C   0  0  0  0  0  0  0  0  0  0  0  0
    4.1806   -0.8194   -2.1889 O   0  0  0  0  0  0  0  0  0  0  0  0
    3.6989   -1.4803    0.9422 C   0  0  0  0  0  0  0  0  0  0  0  0
   -5.2440    0.2650   -2.7542 H   0  0  0  0  0  0  0  0  0  0  0  0
   -4.1003    1.5622   -2.3701 H   0  0  0  0  0  0  0  0  0  0  0  0
   -5.7899    1.9466   -2.6915 H   0  0  0  0  0  0  0  0  0  0  0  0
   -7.5893    1.4673   -1.0312 H   0  0  0  0  0  0  0  0  0  0  0  0
   -7.1783   -0.2516   -1.1063 H   0  0  0  0  0  0  0  0  0  0  0  0
   -7.2406    0.5771    0.4572 H   0  0  0  0  0  0  0  0  0  0  0  0
   -4.1888    2.7421   -0.1438 H   0  0  0  0  0  0  0  0  0  0  0  0
   -5.3964    2.2931    1.0722 H   0  0  0  0  0  0  0  0  0  0  0  0
   -5.8815    3.1682   -0.3867 H   0  0  0  0  0  0  0  0  0  0  0  0
   -4.8772   -1.0382   -0.5870 H   0  0  0  0  0  0  0  0  0  0  0  0
   -4.9392   -0.2187    0.9596 H   0  0  0  0  0  0  0  0  0  0  0  0
   -2.7575    0.1702   -1.1576 H   0  0  0  0  0  0  0  0  0  0  0  0
   -2.8203    1.0014    0.4142 H   0  0  0  0  0  0  0  0  0  0  0  0
   -0.6571   -0.0340    0.0402 H   0  0  0  0  0  0  0  0  0  0  0  0
   -1.2335   -3.3691    1.7129 H   0  0  0  0  0  0  0  0  0  0  0  0
    0.6312   -4.7532    2.4743 H   0  0  0  0  0  0  0  0  0  0  0  0
    2.9915   -4.0150    2.1875 H   0  0  0  0  0  0  0  0  0  0  0  0
    3.5761    1.6276   -0.5282 H   0  0  0  0  0  0  0  0  0  0  0  0
    5.9784    0.2330    0.7813 H   0  0  0  0  0  0  0  0  0  0  0  0
    5.0331    1.5237    1.5289 H   0  0  0  0  0  0  0  0  0  0  0  0
    5.6389    3.0794   -0.3162 H   0  0  0  0  0  0  0  0  0  0  0  0
    7.0981    2.3703    0.4023 H   0  0  0  0  0  0  0  0  0  0  0  0
    6.0316    0.4722   -3.0788 H   0  0  0  0  0  0  0  0  0  0  0  0
    4.2946   -1.3040    1.8418 H   0  0  0  0  0  0  0  0  0  0  0  0
    4.2656   -2.0370    0.1912 H   0  0  0  0  0  0  0  0  0  0  0  0
  1  2  1  0
  2  3  1  0
  2  4  1  0
  2  5  1  0
  5  6  1  0
  6  7  1  0
  7  8  2  0
  7  9  1  0
  9 10  1  0
 10 11  1  0
 11 12  2  0
 12 13  1  0
 13 14  2  0
 14 15  1  0
 15 16  1  0
 16 17  2  0
 16 18  1  0
 18 19  1  0
 19 20  1  0
 20 21  1  0
 21 22  1  0
 22 23  2  0
 22 24  1  0
 24 25  1  0
 25 26  2  0
 18 27  1  0
 15 10  2  0
 25 19  1  0
 27 14  1  0
  1 28  1  0
  1 29  1  0
  1 30  1  0
  3 31  1  0
  3 32  1  0
  3 33  1  0
  4 34  1  0
  4 35  1  0
  4 36  1  0
  5 37  1  0
  5 38  1  0
  6 39  1  0
  6 40  1  0
  9 41  1  0
 11 42  1  0
 12 43  1  0
 13 44  1  0
 19 45  1  0
 20 46  1  0
 20 47  1  0
 21 48  1  0
 21 49  1  0
 24 50  1  0
 27 51  1  0
 27 52  1  0
M  END
>  <linker>  (6) 
acetamide

>  <mw>  (6) 
371.44

>  <clogp>  (6) 
2.21

>  <tpsa>  (6) 
95.6

>  <cns_mpo_proxy>  (6) 
3.5

>  <qed>  (6) 
0.793

$$$$
GLUE0872
     RDKit          3D

 50 52  0  0  0  0  0  0  0  0999 V2000
   -6.4048    0.9666   -1.0161 C   0  0  0  0  0  0  0  0  0  0  0  0
   -4.8745    1.0175   -0.8826 C   0  0  0  0  0  0  0  0  0  0  0  0
   -4.4672    2.3461   -0.2231 C   0  0  0  0  0  0  0  0  0  0  0  0
   -4.2414    0.9426   -2.2828 C   0  0  0  0  0  0  0  0  0  0  0  0
   -4.4057   -0.1744   -0.0188 C   0  0  0  0  0  0  0  0  0  0  0  0
   -2.9773   -0.1541    0.1162 O   0  0  0  0  0  0  0  0  0  0  0  0
   -2.4628   -1.1681    0.8613 C   0  0  0  0  0  0  0  0  0  0  0  0
   -3.1378   -2.0377    1.3911 O   0  0  0  0  0  0  0  0  0  0  0  0
   -1.1076   -1.0240    0.8978 N   0  0  0  0  0  0  0  0  0  0  0  0
   -0.1558   -1.8356    1.5380 C   0  0  0  0  0  0  0  0  0  0  0  0
   -0.4619   -2.9833    2.2742 C   0  0  0  0  0  0  0  0  0  0  0  0
    0.5570   -3.7491    2.8802 C   0  0  0  0  0  0  0  0  0  0  0  0
    1.9025   -3.3872    2.7647 C   0  0  0  0  0  0  0  0  0  0  0  0
    2.2063   -2.2496    2.0417 C   0  0  0  0  0  0  0  0  0  0  0  0
    1.1888   -1.4997    1.4490 C   0  0  0  0  0  0  0  0  0  0  0  0
    1.8176   -0.3673    0.7575 C   0  0  0  0  0  0  0  0  0  0  0  0
    1.2114    0.4379    0.0751 O   0  0  0  0  0  0  0  0  0  0  0  0
    3.1763   -0.4254    1.0255 N   0  0  0  0  0  0  0  0  0  0  0  0
    4.1867    0.3779    0.3440 C   0  0  0  0  0  0  0  0  0  0  0  0
    3.8847    1.8760    0.3435 C   0  0  0  0  0  0  0  0  0  0  0  0
    5.0269    2.6198   -0.3307 C   0  0  0  0  0  0  0  0  0  0  0  0
    5.2629    2.1075   -1.7325 C   0  0  0  0  0  0  0  0  0  0  0  0
    5.8046    2.7914   -2.5962 O   0  0  0  0  0  0  0  0  0  0  0  0
    4.9167    0.8025   -1.9783 N   0  0  0  0  0  0  0  0  0  0  0  0
    4.4215   -0.1239   -1.0894 C   0  0  0  0  0  0  0  0  0  0  0  0
    4.2840   -1.2987   -1.4282 O   0  0  0  0  0  0  0  0  0  0  0  0
    3.5343   -1.6436    1.7379 C   0  0  0  0  0  0  0  0  0  0  0  0
   -6.7779    1.7989   -1.6234 H   0  0  0  0  0  0  0  0  0  0  0  0
   -6.8898    1.0264   -0.0353 H   0  0  0  0  0  0  0  0  0  0  0  0
   -6.7293    0.0350   -1.4935 H   0  0  0  0  0  0  0  0  0  0  0  0
   -4.8276    3.2016   -0.8055 H   0  0  0  0  0  0  0  0  0  0  0  0
   -3.3787    2.4388   -0.1417 H   0  0  0  0  0  0  0  0  0  0  0  0
   -4.8864    2.4307    0.7855 H   0  0  0  0  0  0  0  0  0  0  0  0
   -4.4942   -0.0009   -2.7792 H   0  0  0  0  0  0  0  0  0  0  0  0
   -3.1491    1.0135   -2.2362 H   0  0  0  0  0  0  0  0  0  0  0  0
   -4.5969    1.7597   -2.9207 H   0  0  0  0  0  0  0  0  0  0  0  0
   -4.7070   -1.1190   -0.4894 H   0  0  0  0  0  0  0  0  0  0  0  0
   -4.8603   -0.1157    0.9784 H   0  0  0  0  0  0  0  0  0  0  0  0
   -0.7555   -0.2225    0.3771 H   0  0  0  0  0  0  0  0  0  0  0  0
   -1.4878   -3.3203    2.3965 H   0  0  0  0  0  0  0  0  0  0  0  0
    0.2842   -4.6406    3.4424 H   0  0  0  0  0  0  0  0  0  0  0  0
    2.6775   -3.9899    3.2280 H   0  0  0  0  0  0  0  0  0  0  0  0
    5.1281    0.2183    0.8872 H   0  0  0  0  0  0  0  0  0  0  0  0
    2.9593    2.0951   -0.2003 H   0  0  0  0  0  0  0  0  0  0  0  0
    3.7527    2.2396    1.3690 H   0  0  0  0  0  0  0  0  0  0  0  0
    4.7832    3.6861   -0.3882 H   0  0  0  0  0  0  0  0  0  0  0  0
    5.9573    2.5082    0.2367 H   0  0  0  0  0  0  0  0  0  0  0  0
    5.1006    0.4638   -2.9129 H   0  0  0  0  0  0  0  0  0  0  0  0
    4.0857   -1.3773    2.6437 H   0  0  0  0  0  0  0  0  0  0  0  0
    4.1263   -2.2937    1.0879 H   0  0  0  0  0  0  0  0  0  0  0  0
  1  2  1  0
  2  3  1  0
  2  4  1  0
  2  5  1  0
  5  6  1  0
  6  7  1  0
  7  8  2  0
  7  9  1  0
  9 10  1  0
 10 11  1  0
 11 12  2  0
 12 13  1  0
 13 14  2  0
 14 15  1  0
 15 16  1  0
 16 17  2  0
 16 18  1  0
 18 19  1  0
 19 20  1  0
 20 21  1  0
 21 22  1  0
 22 23  2  0
 22 24  1  0
 24 25  1  0
 25 26  2  0
 18 27  1  0
 15 10  2  0
 25 19  1  0
 27 14  1  0
  1 28  1  0
  1 29  1  0
  1 30  1  0
  3 31  1  0
  3 32  1  0
  3 33  1  0
  4 34  1  0
  4 35  1  0
  4 36  1  0
  5 37  1  0
  5 38  1  0
  9 39  1  0
 11 40  1  0
 12 41  1  0
 13 42  1  0
 19 43  1  0
 20 44  1  0
 20 45  1  0
 21 46  1  0
 21 47  1  0
 24 48  1  0
 27 49  1  0
 27 50  1  0
M  END
>  <linker>  (7) 
carbamate

>  <mw>  (7) 
373.41

>  <clogp>  (7) 
2.04

>  <tpsa>  (7) 
104.8

>  <cns_mpo_proxy>  (7) 
3.5

>  <qed>  (7) 
0.789

$$$$
GLUE0141
     RDKit          3D

 42 45  0  0  0  0  0  0  0  0999 V2000
   -5.7749    1.7597    2.9491 O   0  0  0  0  0  0  0  0  0  0  0  0
   -5.0387    1.3843    2.0412 C   0  0  0  0  0  0  0  0  0  0  0  0
   -4.7078    2.2631    0.8576 C   0  0  0  0  0  0  0  0  0  0  0  0
   -3.3982    1.8440    0.2079 C   0  0  0  0  0  0  0  0  0  0  0  0
   -3.4833    0.3734   -0.1990 C   0  0  0  0  0  0  0  0  0  0  0  0
   -2.2939   -0.1150   -0.8898 N   0  0  0  0  0  0  0  0  0  0  0  0
   -2.3862   -1.1374   -1.9224 C   0  0  0  0  0  0  0  0  0  0  0  0
   -0.9582   -1.4957   -2.1588 C   0  0  0  0  0  0  0  0  0  0  0  0
   -0.4084   -2.3642   -3.0819 C   0  0  0  0  0  0  0  0  0  0  0  0
    0.9795   -2.5340   -3.0744 C   0  0  0  0  0  0  0  0  0  0  0  0
    1.7973   -1.8472   -2.1511 C   0  0  0  0  0  0  0  0  0  0  0  0
    1.2427   -0.9728   -1.2133 C   0  0  0  0  0  0  0  0  0  0  0  0
    1.9792   -0.2557   -0.2533 N   0  0  0  0  0  0  0  0  0  0  0  0
    3.3332   -0.2466   -0.0406 C   0  0  0  0  0  0  0  0  0  0  0  0
    4.1639   -0.8764   -0.6806 O   0  0  0  0  0  0  0  0  0  0  0  0
    3.5895    0.5815    0.9938 O   0  0  0  0  0  0  0  0  0  0  0  0
    4.8076    0.8108    1.4653 C   0  0  0  0  0  0  0  0  0  0  0  0
    6.0551    0.3128    1.1311 C   0  0  0  0  0  0  0  0  0  0  0  0
    7.1095    0.8543    1.9251 C   0  0  0  0  0  0  0  0  0  0  0  0
    6.6419    1.7549    2.8515 C   0  0  0  0  0  0  0  0  0  0  0  0
    4.9482    1.9401    2.7596 S   0  0  0  0  0  0  0  0  0  0  0  0
   -0.1377   -0.8214   -1.2532 C   0  0  0  0  0  0  0  0  0  0  0  0
   -1.0001    0.0170   -0.4119 C   0  0  0  0  0  0  0  0  0  0  0  0
   -0.5978    0.6769    0.5285 O   0  0  0  0  0  0  0  0  0  0  0  0
   -3.8178   -0.5030    1.0180 C   0  0  0  0  0  0  0  0  0  0  0  0
   -3.5593   -1.7042    1.0803 O   0  0  0  0  0  0  0  0  0  0  0  0
   -4.5419    0.1053    2.0176 N   0  0  0  0  0  0  0  0  0  0  0  0
   -5.5368    2.2037    0.1439 H   0  0  0  0  0  0  0  0  0  0  0  0
   -4.6263    3.2980    1.2067 H   0  0  0  0  0  0  0  0  0  0  0  0
   -3.1952    2.4716   -0.6675 H   0  0  0  0  0  0  0  0  0  0  0  0
   -2.5859    2.0126    0.9235 H   0  0  0  0  0  0  0  0  0  0  0  0
   -4.3193    0.2602   -0.9026 H   0  0  0  0  0  0  0  0  0  0  0  0
   -2.8586   -0.7064   -2.8093 H   0  0  0  0  0  0  0  0  0  0  0  0
   -2.9516   -1.9949   -1.5468 H   0  0  0  0  0  0  0  0  0  0  0  0
   -1.0265   -2.9055   -3.7914 H   0  0  0  0  0  0  0  0  0  0  0  0
    1.4438   -3.2120   -3.7888 H   0  0  0  0  0  0  0  0  0  0  0  0
    2.8679   -2.0280   -2.1952 H   0  0  0  0  0  0  0  0  0  0  0  0
    1.4435    0.3346    0.3825 H   0  0  0  0  0  0  0  0  0  0  0  0
    6.2243   -0.4156    0.3478 H   0  0  0  0  0  0  0  0  0  0  0  0
    8.1550    0.5923    1.8182 H   0  0  0  0  0  0  0  0  0  0  0  0
    7.2128    2.3139    3.5801 H   0  0  0  0  0  0  0  0  0  0  0  0
   -4.7905   -0.4809    2.8027 H   0  0  0  0  0  0  0  0  0  0  0  0
  1  2  2  0
  2  3  1  0
  3  4  1  0
  4  5  1  0
  5  6  1  0
  6  7  1  0
  7  8  1  0
  8  9  2  0
  9 10  1  0
 10 11  2  0
 11 12  1  0
 12 13  1  0
 13 14  1  0
 14 15  2  0
 14 16  1  0
 16 17  1  0
 17 18  2  0
 18 19  1  0
 19 20  2  0
 20 21  1  0
 12 22  2  0
 22 23  1  0
 23 24  2  0
  5 25  1  0
 25 26  2  0
 25 27  1  0
 27  2  1  0
 23  6  1  0
 22  8  1  0
 21 17  1  0
  3 28  1  0
  3 29  1  0
  4 30  1  0
  4 31  1  0
  5 32  1  0
  7 33  1  0
  7 34  1  0
  9 35  1  0
 10 36  1  0
 11 37  1  0
 13 38  1  0
 18 39  1  0
 19 40  1  0
 20 41  1  0
 27 42  1  0
M  END
>  <linker>  (8) 
carbamate

>  <mw>  (8) 
385.4

>  <clogp>  (8) 
2.12

>  <tpsa>  (8) 
104.8

>  <cns_mpo_proxy>  (8) 
3.5

>  <qed>  (8) 
0.788

$$$$
GLUE1089
     RDKit          3D

 42 45  0  0  0  0  0  0  0  0999 V2000
   -6.8077    1.6785   -0.5830 O   0  0  0  0  0  0  0  0  0  0  0  0
   -5.6850    1.5772   -0.0972 C   0  0  0  0  0  0  0  0  0  0  0  0
   -5.2728    0.3788    0.7221 C   0  0  0  0  0  0  0  0  0  0  0  0
   -4.0276    0.6642    1.5435 C   0  0  0  0  0  0  0  0  0  0  0  0
   -2.8850    1.2241    0.6951 C   0  0  0  0  0  0  0  0  0  0  0  0
   -2.0139    0.1893    0.1398 N   0  0  0  0  0  0  0  0  0  0  0  0
   -2.4382   -0.7815   -0.8597 C   0  0  0  0  0  0  0  0  0  0  0  0
   -1.1489   -1.3969   -1.2893 C   0  0  0  0  0  0  0  0  0  0  0  0
   -0.9178   -2.4197   -2.1890 C   0  0  0  0  0  0  0  0  0  0  0  0
    0.4076   -2.8010   -2.4200 C   0  0  0  0  0  0  0  0  0  0  0  0
    1.4801   -2.1618   -1.7612 C   0  0  0  0  0  0  0  0  0  0  0  0
    1.2488   -1.1248   -0.8544 C   0  0  0  0  0  0  0  0  0  0  0  0
    2.2540   -0.4279   -0.1603 N   0  0  0  0  0  0  0  0  0  0  0  0
    3.6117   -0.6078   -0.2072 C   0  0  0  0  0  0  0  0  0  0  0  0
    4.2036   -1.4457   -0.8735 O   0  0  0  0  0  0  0  0  0  0  0  0
    4.1870    0.3014    0.6340 O   0  0  0  0  0  0  0  0  0  0  0  0
    5.5326    0.4149    0.7388 C   0  0  0  0  0  0  0  0  0  0  0  0
    6.5527   -0.0104   -0.1615 C   0  0  0  0  0  0  0  0  0  0  0  0
    7.8145    0.3117    0.2926 C   0  0  0  0  0  0  0  0  0  0  0  0
    7.7679    1.1422    1.7867 S   0  0  0  0  0  0  0  0  0  0  0  0
    6.0589    1.0745    1.8280 C   0  0  0  0  0  0  0  0  0  0  0  0
   -0.0790   -0.7752   -0.6439 C   0  0  0  0  0  0  0  0  0  0  0  0
   -0.6319    0.2574    0.2396 C   0  0  0  0  0  0  0  0  0  0  0  0
    0.0439    1.0068    0.9210 O   0  0  0  0  0  0  0  0  0  0  0  0
   -3.3777    2.1798   -0.4056 C   0  0  0  0  0  0  0  0  0  0  0  0
   -2.6559    2.6225   -1.2963 O   0  0  0  0  0  0  0  0  0  0  0  0
   -4.7111    2.4967   -0.3767 N   0  0  0  0  0  0  0  0  0  0  0  0
   -6.0990    0.1224    1.3943 H   0  0  0  0  0  0  0  0  0  0  0  0
   -5.1187   -0.4617    0.0396 H   0  0  0  0  0  0  0  0  0  0  0  0
   -4.2892    1.4124    2.3043 H   0  0  0  0  0  0  0  0  0  0  0  0
   -3.7134   -0.2362    2.0839 H   0  0  0  0  0  0  0  0  0  0  0  0
   -2.2672    1.8415    1.3603 H   0  0  0  0  0  0  0  0  0  0  0  0
   -3.0972   -1.5166   -0.3914 H   0  0  0  0  0  0  0  0  0  0  0  0
   -2.9288   -0.2714   -1.6930 H   0  0  0  0  0  0  0  0  0  0  0  0
   -1.7321   -2.9164   -2.7075 H   0  0  0  0  0  0  0  0  0  0  0  0
    0.6234   -3.6035   -3.1237 H   0  0  0  0  0  0  0  0  0  0  0  0
    2.4865   -2.5033   -1.9884 H   0  0  0  0  0  0  0  0  0  0  0  0
    1.9426    0.3190    0.4600 H   0  0  0  0  0  0  0  0  0  0  0  0
    6.3917   -0.5269   -1.0995 H   0  0  0  0  0  0  0  0  0  0  0  0
    8.7617    0.1030   -0.1855 H   0  0  0  0  0  0  0  0  0  0  0  0
    5.5212    1.5173    2.6547 H   0  0  0  0  0  0  0  0  0  0  0  0
   -4.9923    3.1533   -1.0944 H   0  0  0  0  0  0  0  0  0  0  0  0
  1  2  2  0
  2  3  1  0
  3  4  1  0
  4  5  1  0
  5  6  1  0
  6  7  1  0
  7  8  1  0
  8  9  2  0
  9 10  1  0
 10 11  2  0
 11 12  1  0
 12 13  1  0
 13 14  1  0
 14 15  2  0
 14 16  1  0
 16 17  1  0
 17 18  1  0
 18 19  2  0
 19 20  1  0
 20 21  1  0
 12 22  2  0
 22 23  1  0
 23 24  2  0
  5 25  1  0
 25 26  2  0
 25 27  1  0
 27  2  1  0
 23  6  1  0
 22  8  1  0
 21 17  2  0
  3 28  1  0
  3 29  1  0
  4 30  1  0
  4 31  1  0
  5 32  1  0
  7 33  1  0
  7 34  1  0
  9 35  1  0
 10 36  1  0
 11 37  1  0
 13 38  1  0
 18 39  1  0
 19 40  1  0
 21 41  1  0
 27 42  1  0
M  END
>  <linker>  (9) 
carbamate

>  <mw>  (9) 
385.4

>  <clogp>  (9) 
2.12

>  <tpsa>  (9) 
104.8

>  <cns_mpo_proxy>  (9) 
3.5

>  <qed>  (9) 
0.788

$$$$
GLUE0103
     RDKit          3D

 50 53  0  0  0  0  0  0  0  0999 V2000
   -4.6110   -0.1658   -1.5340 C   0  0  0  0  0  0  0  0  0  0  0  0
   -4.3184   -0.9551   -0.2880 C   0  0  0  0  0  0  0  0  0  0  0  0
   -4.8534   -2.2421   -0.1431 C   0  0  0  0  0  0  0  0  0  0  0  0
   -4.5981   -2.9917    1.0049 C   0  0  0  0  0  0  0  0  0  0  0  0
   -3.8172   -2.4622    2.0321 C   0  0  0  0  0  0  0  0  0  0  0  0
   -3.2834   -1.1701    1.9304 C   0  0  0  0  0  0  0  0  0  0  0  0
   -2.4556   -0.6269    3.0621 C   0  0  0  0  0  0  0  0  0  0  0  0
   -3.5281   -0.4290    0.7548 C   0  0  0  0  0  0  0  0  0  0  0  0
   -2.9438    0.9281    0.5991 C   0  0  0  0  0  0  0  0  0  0  0  0
   -3.6861    1.8998    0.6337 O   0  0  0  0  0  0  0  0  0  0  0  0
   -1.5789    0.9134    0.4117 N   0  0  0  0  0  0  0  0  0  0  0  0
   -0.7252    2.0180    0.2216 C   0  0  0  0  0  0  0  0  0  0  0  0
   -1.1473    3.3484    0.1720 C   0  0  0  0  0  0  0  0  0  0  0  0
   -0.2234    4.3952   -0.0349 C   0  0  0  0  0  0  0  0  0  0  0  0
    1.1414    4.1374   -0.1969 C   0  0  0  0  0  0  0  0  0  0  0  0
    1.5618    2.8225   -0.1404 C   0  0  0  0  0  0  0  0  0  0  0  0
    0.6373    1.7976    0.0673 C   0  0  0  0  0  0  0  0  0  0  0  0
    1.3761    0.5295    0.0856 C   0  0  0  0  0  0  0  0  0  0  0  0
    0.8503   -0.5645    0.1800 O   0  0  0  0  0  0  0  0  0  0  0  0
    2.7222    0.8370   -0.0321 N   0  0  0  0  0  0  0  0  0  0  0  0
    3.7751   -0.1430   -0.2789 C   0  0  0  0  0  0  0  0  0  0  0  0
    3.7599   -1.3202    0.6956 C   0  0  0  0  0  0  0  0  0  0  0  0
    4.9296   -2.2424    0.3895 C   0  0  0  0  0  0  0  0  0  0  0  0
    4.8918   -2.7179   -1.0441 C   0  0  0  0  0  0  0  0  0  0  0  0
    5.4392   -3.7562   -1.4035 O   0  0  0  0  0  0  0  0  0  0  0  0
    4.2821   -1.8893   -1.9523 N   0  0  0  0  0  0  0  0  0  0  0  0
    3.7375   -0.6450   -1.7307 C   0  0  0  0  0  0  0  0  0  0  0  0
    3.3465    0.0392   -2.6755 O   0  0  0  0  0  0  0  0  0  0  0  0
    2.9313    2.2538   -0.2947 C   0  0  0  0  0  0  0  0  0  0  0  0
   -5.1118   -0.7825   -2.2881 H   0  0  0  0  0  0  0  0  0  0  0  0
   -3.6840    0.2031   -1.9848 H   0  0  0  0  0  0  0  0  0  0  0  0
   -5.2683    0.6782   -1.3029 H   0  0  0  0  0  0  0  0  0  0  0  0
   -5.4725   -2.6727   -0.9275 H   0  0  0  0  0  0  0  0  0  0  0  0
   -5.0144   -3.9917    1.1016 H   0  0  0  0  0  0  0  0  0  0  0  0
   -3.6359   -3.0648    2.9199 H   0  0  0  0  0  0  0  0  0  0  0  0
   -2.6231   -1.1964    3.9828 H   0  0  0  0  0  0  0  0  0  0  0  0
   -1.3911   -0.6869    2.8157 H   0  0  0  0  0  0  0  0  0  0  0  0
   -2.7231    0.4119    3.2805 H   0  0  0  0  0  0  0  0  0  0  0  0
   -1.1213   -0.0002    0.3900 H   0  0  0  0  0  0  0  0  0  0  0  0
   -2.1953    3.6127    0.2848 H   0  0  0  0  0  0  0  0  0  0  0  0
   -0.5881    5.4203   -0.0738 H   0  0  0  0  0  0  0  0  0  0  0  0
    1.8401    4.9511   -0.3645 H   0  0  0  0  0  0  0  0  0  0  0  0
    4.7288    0.3889   -0.1590 H   0  0  0  0  0  0  0  0  0  0  0  0
    2.8319   -1.8962    0.6096 H   0  0  0  0  0  0  0  0  0  0  0  0
    3.8246   -0.9613    1.7292 H   0  0  0  0  0  0  0  0  0  0  0  0
    4.8845   -3.1179    1.0461 H   0  0  0  0  0  0  0  0  0  0  0  0
    5.8852   -1.7338    0.5573 H   0  0  0  0  0  0  0  0  0  0  0  0
    4.2856   -2.2052   -2.9125 H   0  0  0  0  0  0  0  0  0  0  0  0
    3.3039    2.3915   -1.3137 H   0  0  0  0  0  0  0  0  0  0  0  0
    3.6324    2.6532    0.4432 H   0  0  0  0  0  0  0  0  0  0  0  0
  1  2  1  0
  2  3  1  0
  3  4  2  0
  4  5  1  0
  5  6  2  0
  6  7  1  0
  6  8  1  0
  8  9  1  0
  9 10  2  0
  9 11  1  0
 11 12  1  0
 12 13  1  0
 13 14  2  0
 14 15  1  0
 15 16  2  0
 16 17  1  0
 17 18  1  0
 18 19  2  0
 18 20  1  0
 20 21  1  0
 21 22  1  0
 22 23  1  0
 23 24  1  0
 24 25  2  0
 24 26  1  0
 26 27  1  0
 27 28  2  0
 20 29  1  0
  8  2  2  0
 17 12  2  0
 27 21  1  0
 29 16  1  0
  1 30  1  0
  1 31  1  0
  1 32  1  0
  3 33  1  0
  4 34  1  0
  5 35  1  0
  7 36  1  0
  7 37  1  0
  7 38  1  0
 11 39  1  0
 13 40  1  0
 14 41  1  0
 15 42  1  0
 21 43  1  0
 22 44  1  0
 22 45  1  0
 23 46  1  0
 23 47  1  0
 26 48  1  0
 29 49  1  0
 29 50  1  0
M  END
>  <linker>  (10) 
amide

>  <mw>  (10) 
391.43

>  <clogp>  (10) 
2.32

>  <tpsa>  (10) 
95.6

>  <cns_mpo_proxy>  (10) 
3.5

>  <qed>  (10) 
0.785

$$$$
GLUE0425
     RDKit          3D

 50 53  0  0  0  0  0  0  0  0999 V2000
   -6.2197    2.7322   -0.7540 C   0  0  0  0  0  0  0  0  0  0  0  0
   -5.0430    1.8424   -0.4792 C   0  0  0  0  0  0  0  0  0  0  0  0
   -4.0362    2.2709    0.3928 C   0  0  0  0  0  0  0  0  0  0  0  0
   -2.9366    1.4535    0.6526 C   0  0  0  0  0  0  0  0  0  0  0  0
   -2.8343    0.1949    0.0427 C   0  0  0  0  0  0  0  0  0  0  0  0
   -1.6319   -0.6266    0.3413 C   0  0  0  0  0  0  0  0  0  0  0  0
   -1.0042   -1.1560   -0.5682 O   0  0  0  0  0  0  0  0  0  0  0  0
   -1.3944   -0.8011    1.6990 N   0  0  0  0  0  0  0  0  0  0  0  0
   -0.2637   -1.4916    2.1718 C   0  0  0  0  0  0  0  0  0  0  0  0
   -0.4425   -2.4452    3.1814 C   0  0  0  0  0  0  0  0  0  0  0  0
    0.6345   -3.2344    3.6255 C   0  0  0  0  0  0  0  0  0  0  0  0
    1.9125   -3.0717    3.0850 C   0  0  0  0  0  0  0  0  0  0  0  0
    2.0979   -2.0830    2.1338 C   0  0  0  0  0  0  0  0  0  0  0  0
    1.0291   -1.2902    1.7032 C   0  0  0  0  0  0  0  0  0  0  0  0
    1.5987   -0.2225    0.8519 C   0  0  0  0  0  0  0  0  0  0  0  0
    0.9984    0.7282    0.3862 O   0  0  0  0  0  0  0  0  0  0  0  0
    2.9666   -0.4571    0.7657 N   0  0  0  0  0  0  0  0  0  0  0  0
    3.8688    0.2235   -0.1575 C   0  0  0  0  0  0  0  0  0  0  0  0
    3.7609    1.7485   -0.1281 C   0  0  0  0  0  0  0  0  0  0  0  0
    4.7748    2.3414   -1.0930 C   0  0  0  0  0  0  0  0  0  0  0  0
    4.5768    1.8058   -2.4916 C   0  0  0  0  0  0  0  0  0  0  0  0
    5.0253    2.3832   -3.4791 O   0  0  0  0  0  0  0  0  0  0  0  0
    3.9619    0.5846   -2.6025 N   0  0  0  0  0  0  0  0  0  0  0  0
    3.7035   -0.3097   -1.5889 C   0  0  0  0  0  0  0  0  0  0  0  0
    3.4800   -1.4916   -1.8490 O   0  0  0  0  0  0  0  0  0  0  0  0
    3.3532   -1.6823    1.4359 C   0  0  0  0  0  0  0  0  0  0  0  0
   -3.8362   -0.2561   -0.8355 C   0  0  0  0  0  0  0  0  0  0  0  0
   -3.7524   -1.5889   -1.5267 C   0  0  0  0  0  0  0  0  0  0  0  0
   -4.9362    0.5821   -1.0864 C   0  0  0  0  0  0  0  0  0  0  0  0
   -5.8803    3.7038   -1.1267 H   0  0  0  0  0  0  0  0  0  0  0  0
   -6.8007    2.8801    0.1619 H   0  0  0  0  0  0  0  0  0  0  0  0
   -6.8838    2.2990   -1.5097 H   0  0  0  0  0  0  0  0  0  0  0  0
   -4.0930    3.2533    0.8566 H   0  0  0  0  0  0  0  0  0  0  0  0
   -2.1419    1.8143    1.3026 H   0  0  0  0  0  0  0  0  0  0  0  0
   -2.2197   -0.7813    2.2846 H   0  0  0  0  0  0  0  0  0  0  0  0
   -1.4289   -2.6274    3.6005 H   0  0  0  0  0  0  0  0  0  0  0  0
    0.4638   -3.9927    4.3865 H   0  0  0  0  0  0  0  0  0  0  0  0
    2.7372   -3.6928    3.4204 H   0  0  0  0  0  0  0  0  0  0  0  0
    4.8882   -0.0461    0.1512 H   0  0  0  0  0  0  0  0  0  0  0  0
    2.7636    2.0870   -0.4287 H   0  0  0  0  0  0  0  0  0  0  0  0
    3.9405    2.1236    0.8855 H   0  0  0  0  0  0  0  0  0  0  0  0
    4.6620    3.4298   -1.1190 H   0  0  0  0  0  0  0  0  0  0  0  0
    5.7972    2.1057   -0.7795 H   0  0  0  0  0  0  0  0  0  0  0  0
    3.8980    0.2101   -3.5396 H   0  0  0  0  0  0  0  0  0  0  0  0
    3.6555   -2.4329    0.7001 H   0  0  0  0  0  0  0  0  0  0  0  0
    4.1632   -1.4641    2.1371 H   0  0  0  0  0  0  0  0  0  0  0  0
   -4.7060   -1.8531   -1.9959 H   0  0  0  0  0  0  0  0  0  0  0  0
   -2.9888   -1.5644   -2.3113 H   0  0  0  0  0  0  0  0  0  0  0  0
   -3.5197   -2.3851   -0.8107 H   0  0  0  0  0  0  0  0  0  0  0  0
   -5.7179    0.2501   -1.7697 H   0  0  0  0  0  0  0  0  0  0  0  0
  1  2  1  0
  2  3  1  0
  3  4  2  0
  4  5  1  0
  5  6  1  0
  6  7  2  0
  6  8  1  0
  8  9  1  0
  9 10  1  0
 10 11  2  0
 11 12  1  0
 12 13  2  0
 13 14  1  0
 14 15  1  0
 15 16  2  0
 15 17  1  0
 17 18  1  0
 18 19  1  0
 19 20  1  0
 20 21  1  0
 21 22  2  0
 21 23  1  0
 23 24  1  0
 24 25  2  0
 17 26  1  0
  5 27  2  0
 27 28  1  0
 27 29  1  0
 29  2  2  0
 14  9  2  0
 24 18  1  0
 26 13  1  0
  1 30  1  0
  1 31  1  0
  1 32  1  0
  3 33  1  0
  4 34  1  0
  8 35  1  0
 10 36  1  0
 11 37  1  0
 12 38  1  0
 18 39  1  0
 19 40  1  0
 19 41  1  0
 20 42  1  0
 20 43  1  0
 23 44  1  0
 26 45  1  0
 26 46  1  0
 28 47  1  0
 28 48  1  0
 28 49  1  0
 29 50  1  0
M  END
>  <linker>  (11) 
amide

>  <mw>  (11) 
391.43

>  <clogp>  (11) 
2.32

>  <tpsa>  (11) 
95.6

>  <cns_mpo_proxy>  (11) 
3.5

>  <qed>  (11) 
0.785

$$$$
GLUE0597
     RDKit          3D

 50 53  0  0  0  0  0  0  0  0999 V2000
   -6.5748   -2.0982   -0.3740 C   0  0  0  0  0  0  0  0  0  0  0  0
   -5.1349   -2.1771    0.0600 C   0  0  0  0  0  0  0  0  0  0  0  0
   -4.4382   -3.3808   -0.1456 C   0  0  0  0  0  0  0  0  0  0  0  0
   -3.1084   -3.5182    0.2459 C   0  0  0  0  0  0  0  0  0  0  0  0
   -2.4533   -2.4523    0.8524 C   0  0  0  0  0  0  0  0  0  0  0  0
   -3.1245   -1.2362    1.0519 C   0  0  0  0  0  0  0  0  0  0  0  0
   -2.3858   -0.1364    1.7346 C   0  0  0  0  0  0  0  0  0  0  0  0
   -2.8887    0.4004    2.7132 O   0  0  0  0  0  0  0  0  0  0  0  0
   -1.1704    0.1641    1.1543 N   0  0  0  0  0  0  0  0  0  0  0  0
   -0.2460    1.1502    1.5560 C   0  0  0  0  0  0  0  0  0  0  0  0
   -0.4170    2.0050    2.6472 C   0  0  0  0  0  0  0  0  0  0  0  0
    0.5577    2.9737    2.9702 C   0  0  0  0  0  0  0  0  0  0  0  0
    1.7239    3.1117    2.2116 C   0  0  0  0  0  0  0  0  0  0  0  0
    1.8993    2.2621    1.1362 C   0  0  0  0  0  0  0  0  0  0  0  0
    0.9280    1.3070    0.8304 C   0  0  0  0  0  0  0  0  0  0  0  0
    1.3963    0.5555   -0.3397 C   0  0  0  0  0  0  0  0  0  0  0  0
    0.7661   -0.3335   -0.8828 O   0  0  0  0  0  0  0  0  0  0  0  0
    2.6498    1.0451   -0.6687 N   0  0  0  0  0  0  0  0  0  0  0  0
    3.3850    0.6143   -1.8600 C   0  0  0  0  0  0  0  0  0  0  0  0
    3.8439   -0.8449   -1.7641 C   0  0  0  0  0  0  0  0  0  0  0  0
    4.9599   -0.9827   -0.7402 C   0  0  0  0  0  0  0  0  0  0  0  0
    6.1096   -0.0592   -1.0595 C   0  0  0  0  0  0  0  0  0  0  0  0
    7.2292   -0.2164   -0.5815 O   0  0  0  0  0  0  0  0  0  0  0  0
    5.8313    1.0222   -1.8558 N   0  0  0  0  0  0  0  0  0  0  0  0
    4.5898    1.5079   -2.1909 C   0  0  0  0  0  0  0  0  0  0  0  0
    4.4705    2.6600   -2.6061 O   0  0  0  0  0  0  0  0  0  0  0  0
    3.0202    2.1925    0.1533 C   0  0  0  0  0  0  0  0  0  0  0  0
   -4.4675   -1.0741    0.6422 C   0  0  0  0  0  0  0  0  0  0  0  0
   -5.1821    0.2359    0.8626 C   0  0  0  0  0  0  0  0  0  0  0  0
   -7.1985   -1.6960    0.4308 H   0  0  0  0  0  0  0  0  0  0  0  0
   -6.9734   -3.0880   -0.6211 H   0  0  0  0  0  0  0  0  0  0  0  0
   -6.6670   -1.4660   -1.2628 H   0  0  0  0  0  0  0  0  0  0  0  0
   -4.9375   -4.2304   -0.6085 H   0  0  0  0  0  0  0  0  0  0  0  0
   -2.5901   -4.4609    0.0909 H   0  0  0  0  0  0  0  0  0  0  0  0
   -1.4257   -2.5804    1.1846 H   0  0  0  0  0  0  0  0  0  0  0  0
   -0.9108   -0.3535    0.3126 H   0  0  0  0  0  0  0  0  0  0  0  0
   -1.3034    1.9515    3.2737 H   0  0  0  0  0  0  0  0  0  0  0  0
    0.3892    3.6263    3.8254 H   0  0  0  0  0  0  0  0  0  0  0  0
    2.4615    3.8665    2.4666 H   0  0  0  0  0  0  0  0  0  0  0  0
    2.6888    0.6881   -2.7054 H   0  0  0  0  0  0  0  0  0  0  0  0
    4.2151   -1.1700   -2.7452 H   0  0  0  0  0  0  0  0  0  0  0  0
    3.0168   -1.5120   -1.5005 H   0  0  0  0  0  0  0  0  0  0  0  0
    5.3346   -2.0122   -0.7464 H   0  0  0  0  0  0  0  0  0  0  0  0
    4.6032   -0.7531    0.2696 H   0  0  0  0  0  0  0  0  0  0  0  0
    6.6033    1.6584   -2.0050 H   0  0  0  0  0  0  0  0  0  0  0  0
    3.9805    1.9976    0.6381 H   0  0  0  0  0  0  0  0  0  0  0  0
    3.0465    3.0965   -0.4612 H   0  0  0  0  0  0  0  0  0  0  0  0
   -5.6125    0.2640    1.8680 H   0  0  0  0  0  0  0  0  0  0  0  0
   -4.5052    1.0863    0.7328 H   0  0  0  0  0  0  0  0  0  0  0  0
   -5.9844    0.3895    0.1348 H   0  0  0  0  0  0  0  0  0  0  0  0
  1  2  1  0
  2  3  2  0
  3  4  1  0
  4  5  2  0
  5  6  1  0
  6  7  1  0
  7  8  2  0
  7  9  1  0
  9 10  1  0
 10 11  1  0
 11 12  2  0
 12 13  1  0
 13 14  2  0
 14 15  1  0
 15 16  1  0
 16 17  2  0
 16 18  1  0
 18 19  1  0
 19 20  1  0
 20 21  1  0
 21 22  1  0
 22 23  2  0
 22 24  1  0
 24 25  1  0
 25 26  2  0
 18 27  1  0
  6 28  2  0
 28 29  1  0
 28  2  1  0
 15 10  2  0
 25 19  1  0
 27 14  1  0
  1 30  1  0
  1 31  1  0
  1 32  1  0
  3 33  1  0
  4 34  1  0
  5 35  1  0
  9 36  1  0
 11 37  1  0
 12 38  1  0
 13 39  1  0
 19 40  1  0
 20 41  1  0
 20 42  1  0
 21 43  1  0
 21 44  1  0
 24 45  1  0
 27 46  1  0
 27 47  1  0
 29 48  1  0
 29 49  1  0
 29 50  1  0
M  END
>  <linker>  (12) 
amide

>  <mw>  (12) 
391.43

>  <clogp>  (12) 
2.32

>  <tpsa>  (12) 
95.6

>  <cns_mpo_proxy>  (12) 
3.5

>  <qed>  (12) 
0.785

$$$$
GLUE1229
     RDKit          3D

 50 53  0  0  0  0  0  0  0  0999 V2000
   -5.7276    2.6521   -1.3694 C   0  0  0  0  0  0  0  0  0  0  0  0
   -4.8611    1.6174   -0.7040 C   0  0  0  0  0  0  0  0  0  0  0  0
   -3.6095    1.9955   -0.1936 C   0  0  0  0  0  0  0  0  0  0  0  0
   -2.7778    1.0643    0.4333 C   0  0  0  0  0  0  0  0  0  0  0  0
   -3.1854   -0.2677    0.5521 C   0  0  0  0  0  0  0  0  0  0  0  0
   -2.3390   -1.3070    1.2125 C   0  0  0  0  0  0  0  0  0  0  0  0
   -2.8940   -2.2519    1.7624 O   0  0  0  0  0  0  0  0  0  0  0  0
   -0.9765   -1.1087    1.1139 N   0  0  0  0  0  0  0  0  0  0  0  0
    0.0536   -1.9123    1.6468 C   0  0  0  0  0  0  0  0  0  0  0  0
   -0.1449   -3.0699    2.4022 C   0  0  0  0  0  0  0  0  0  0  0  0
    0.9508   -3.8179    2.8849 C   0  0  0  0  0  0  0  0  0  0  0  0
    2.2682   -3.4266    2.6261 C   0  0  0  0  0  0  0  0  0  0  0  0
    2.4670   -2.2758    1.8880 C   0  0  0  0  0  0  0  0  0  0  0  0
    1.3741   -1.5453    1.4194 C   0  0  0  0  0  0  0  0  0  0  0  0
    1.8956   -0.3838    0.6886 C   0  0  0  0  0  0  0  0  0  0  0  0
    1.1951    0.4204    0.1008 O   0  0  0  0  0  0  0  0  0  0  0  0
    3.2760   -0.4118    0.8049 N   0  0  0  0  0  0  0  0  0  0  0  0
    4.1884    0.4350    0.0431 C   0  0  0  0  0  0  0  0  0  0  0  0
    3.8506    1.9236    0.1159 C   0  0  0  0  0  0  0  0  0  0  0  0
    4.8950    2.7153   -0.6554 C   0  0  0  0  0  0  0  0  0  0  0  0
    4.9901    2.2455   -2.0882 C   0  0  0  0  0  0  0  0  0  0  0  0
    5.4122    2.9677   -2.9867 O   0  0  0  0  0  0  0  0  0  0  0  0
    4.6561    0.9368   -2.3310 N   0  0  0  0  0  0  0  0  0  0  0  0
    4.2824   -0.0248   -1.4200 C   0  0  0  0  0  0  0  0  0  0  0  0
    4.1393   -1.1941   -1.7745 O   0  0  0  0  0  0  0  0  0  0  0  0
    3.7388   -1.6329    1.4498 C   0  0  0  0  0  0  0  0  0  0  0  0
   -4.4420   -0.6479    0.0622 C   0  0  0  0  0  0  0  0  0  0  0  0
   -5.2868    0.2812   -0.5681 C   0  0  0  0  0  0  0  0  0  0  0  0
   -6.6236   -0.1748   -1.0859 C   0  0  0  0  0  0  0  0  0  0  0  0
   -5.9704    2.3462   -2.3919 H   0  0  0  0  0  0  0  0  0  0  0  0
   -5.2216    3.6216   -1.4298 H   0  0  0  0  0  0  0  0  0  0  0  0
   -6.6518    2.7951   -0.8007 H   0  0  0  0  0  0  0  0  0  0  0  0
   -3.2727    3.0274   -0.2762 H   0  0  0  0  0  0  0  0  0  0  0  0
   -1.8299    1.4071    0.8388 H   0  0  0  0  0  0  0  0  0  0  0  0
   -0.6473   -0.3308    0.5426 H   0  0  0  0  0  0  0  0  0  0  0  0
   -1.1437   -3.4293    2.6340 H   0  0  0  0  0  0  0  0  0  0  0  0
    0.7590   -4.7192    3.4648 H   0  0  0  0  0  0  0  0  0  0  0  0
    3.1012   -4.0162    2.9958 H   0  0  0  0  0  0  0  0  0  0  0  0
    5.1858    0.2881    0.4794 H   0  0  0  0  0  0  0  0  0  0  0  0
    2.8667    2.1301   -0.3196 H   0  0  0  0  0  0  0  0  0  0  0  0
    3.8204    2.2579    1.1593 H   0  0  0  0  0  0  0  0  0  0  0  0
    5.8838    2.6146   -0.1947 H   0  0  0  0  0  0  0  0  0  0  0  0
    4.6208    3.7757   -0.6561 H   0  0  0  0  0  0  0  0  0  0  0  0
    4.7479    0.6262   -3.2886 H   0  0  0  0  0  0  0  0  0  0  0  0
    4.3823   -1.3683    2.2932 H   0  0  0  0  0  0  0  0  0  0  0  0
    4.2683   -2.2577    0.7250 H   0  0  0  0  0  0  0  0  0  0  0  0
   -4.7614   -1.6836    0.1730 H   0  0  0  0  0  0  0  0  0  0  0  0
   -6.8025   -1.2320   -0.8625 H   0  0  0  0  0  0  0  0  0  0  0  0
   -7.4295    0.3996   -0.6183 H   0  0  0  0  0  0  0  0  0  0  0  0
   -6.6707   -0.0538   -2.1726 H   0  0  0  0  0  0  0  0  0  0  0  0
  1  2  1  0
  2  3  1  0
  3  4  2  0
  4  5  1  0
  5  6  1  0
  6  7  2  0
  6  8  1  0
  8  9  1  0
  9 10  1  0
 10 11  2  0
 11 12  1  0
 12 13  2  0
 13 14  1  0
 14 15  1  0
 15 16  2  0
 15 17  1  0
 17 18  1  0
 18 19  1  0
 19 20  1  0
 20 21  1  0
 21 22  2  0
 21 23  1  0
 23 24  1  0
 24 25  2  0
 17 26  1  0
  5 27  2  0
 27 28  1  0
 28 29  1  0
 28  2  2  0
 14  9  2  0
 24 18  1  0
 26 13  1  0
  1 30  1  0
  1 31  1  0
  1 32  1  0
  3 33  1  0
  4 34  1  0
  8 35  1  0
 10 36  1  0
 11 37  1  0
 12 38  1  0
 18 39  1  0
 19 40  1  0
 19 41  1  0
 20 42  1  0
 20 43  1  0
 23 44  1  0
 26 45  1  0
 26 46  1  0
 27 47  1  0
 29 48  1  0
 29 49  1  0
 29 50  1  0
M  END
>  <linker>  (13) 
amide

>  <mw>  (13) 
391.43

>  <clogp>  (13) 
2.32

>  <tpsa>  (13) 
95.6

>  <cns_mpo_proxy>  (13) 
3.5

>  <qed>  (13) 
0.785

$$$$
GLUE2036
     RDKit          3D

 50 53  0  0  0  0  0  0  0  0999 V2000
   -3.4315    0.0608    3.3565 C   0  0  0  0  0  0  0  0  0  0  0  0
   -3.7586   -0.5219    2.0127 C   0  0  0  0  0  0  0  0  0  0  0  0
   -4.7843   -1.4680    1.8823 C   0  0  0  0  0  0  0  0  0  0  0  0
   -5.0838   -2.0384    0.6384 C   0  0  0  0  0  0  0  0  0  0  0  0
   -6.2180   -3.0104    0.4996 C   0  0  0  0  0  0  0  0  0  0  0  0
   -4.3469   -1.6468   -0.4860 C   0  0  0  0  0  0  0  0  0  0  0  0
   -3.2969   -0.7264   -0.3671 C   0  0  0  0  0  0  0  0  0  0  0  0
   -2.5361   -0.3609   -1.5998 C   0  0  0  0  0  0  0  0  0  0  0  0
   -3.1121   -0.4124   -2.6808 O   0  0  0  0  0  0  0  0  0  0  0  0
   -1.2149   -0.0166   -1.3965 N   0  0  0  0  0  0  0  0  0  0  0  0
   -0.2680    0.3820   -2.3635 C   0  0  0  0  0  0  0  0  0  0  0  0
   -0.5266    0.5131   -3.7294 C   0  0  0  0  0  0  0  0  0  0  0  0
    0.4904    0.9075   -4.6257 C   0  0  0  0  0  0  0  0  0  0  0  0
    1.7869    1.1811   -4.1787 C   0  0  0  0  0  0  0  0  0  0  0  0
    2.0424    1.0624   -2.8262 C   0  0  0  0  0  0  0  0  0  0  0  0
    1.0264    0.6740   -1.9518 C   0  0  0  0  0  0  0  0  0  0  0  0
    1.5907    0.6496   -0.5968 C   0  0  0  0  0  0  0  0  0  0  0  0
    0.9751    0.2887    0.3901 O   0  0  0  0  0  0  0  0  0  0  0  0
    2.8998    1.0939   -0.6895 N   0  0  0  0  0  0  0  0  0  0  0  0
    3.8799    1.0125    0.3888 C   0  0  0  0  0  0  0  0  0  0  0  0
    3.3912    1.6067    1.7093 C   0  0  0  0  0  0  0  0  0  0  0  0
    4.5060    1.5271    2.7404 C   0  0  0  0  0  0  0  0  0  0  0  0
    4.9817    0.1049    2.9236 C   0  0  0  0  0  0  0  0  0  0  0  0
    5.5308   -0.2734    3.9543 O   0  0  0  0  0  0  0  0  0  0  0  0
    4.8442   -0.7344    1.8466 N   0  0  0  0  0  0  0  0  0  0  0  0
    4.3616   -0.4321    0.5938 C   0  0  0  0  0  0  0  0  0  0  0  0
    4.4209   -1.2626   -0.3119 O   0  0  0  0  0  0  0  0  0  0  0  0
    3.3129    1.2715   -2.0747 C   0  0  0  0  0  0  0  0  0  0  0  0
   -3.0100   -0.1617    0.8836 C   0  0  0  0  0  0  0  0  0  0  0  0
   -4.3252    0.1163    3.9868 H   0  0  0  0  0  0  0  0  0  0  0  0
   -3.0419    1.0793    3.2565 H   0  0  0  0  0  0  0  0  0  0  0  0
   -2.6816   -0.5576    3.8593 H   0  0  0  0  0  0  0  0  0  0  0  0
   -5.3615   -1.7590    2.7586 H   0  0  0  0  0  0  0  0  0  0  0  0
   -6.0211   -3.7279   -0.3040 H   0  0  0  0  0  0  0  0  0  0  0  0
   -6.3549   -3.5858    1.4213 H   0  0  0  0  0  0  0  0  0  0  0  0
   -7.1453   -2.4739    0.2764 H   0  0  0  0  0  0  0  0  0  0  0  0
   -4.5832   -2.0659   -1.4631 H   0  0  0  0  0  0  0  0  0  0  0  0
   -0.8368   -0.1112   -0.4541 H   0  0  0  0  0  0  0  0  0  0  0  0
   -1.5120    0.3107   -4.1401 H   0  0  0  0  0  0  0  0  0  0  0  0
    0.2549    0.9929   -5.6853 H   0  0  0  0  0  0  0  0  0  0  0  0
    2.5614    1.4747   -4.8802 H   0  0  0  0  0  0  0  0  0  0  0  0
    4.7551    1.5875    0.0572 H   0  0  0  0  0  0  0  0  0  0  0  0
    3.0834    2.6491    1.5683 H   0  0  0  0  0  0  0  0  0  0  0  0
    2.5226    1.0609    2.0940 H   0  0  0  0  0  0  0  0  0  0  0  0
    4.1380    1.8961    3.7038 H   0  0  0  0  0  0  0  0  0  0  0  0
    5.3632    2.1398    2.4406 H   0  0  0  0  0  0  0  0  0  0  0  0
    5.1891   -1.6763    1.9717 H   0  0  0  0  0  0  0  0  0  0  0  0
    3.7086    2.2829   -2.2015 H   0  0  0  0  0  0  0  0  0  0  0  0
    4.0579    0.5159   -2.3396 H   0  0  0  0  0  0  0  0  0  0  0  0
   -2.2237    0.5816    0.9908 H   0  0  0  0  0  0  0  0  0  0  0  0
  1  2  1  0
  2  3  1  0
  3  4  2  0
  4  5  1  0
  4  6  1  0
  6  7  2  0
  7  8  1  0
  8  9  2  0
  8 10  1  0
 10 11  1  0
 11 12  1  0
 12 13  2  0
 13 14  1  0
 14 15  2  0
 15 16  1  0
 16 17  1  0
 17 18  2  0
 17 19  1  0
 19 20  1  0
 20 21  1  0
 21 22  1  0
 22 23  1  0
 23 24  2  0
 23 25  1  0
 25 26  1  0
 26 27  2  0
 19 28  1  0
  7 29  1  0
 29  2  2  0
 16 11  2  0
 26 20  1  0
 28 15  1  0
  1 30  1  0
  1 31  1  0
  1 32  1  0
  3 33  1  0
  5 34  1  0
  5 35  1  0
  5 36  1  0
  6 37  1  0
 10 38  1  0
 12 39  1  0
 13 40  1  0
 14 41  1  0
 20 42  1  0
 21 43  1  0
 21 44  1  0
 22 45  1  0
 22 46  1  0
 25 47  1  0
 28 48  1  0
 28 49  1  0
 29 50  1  0
M  END
>  <linker>  (14) 
amide

>  <mw>  (14) 
391.43

>  <clogp>  (14) 
2.32

>  <tpsa>  (14) 
95.6

>  <cns_mpo_proxy>  (14) 
3.5

>  <qed>  (14) 
0.785

$$$$
GLUE2407
     RDKit          3D

 50 53  0  0  0  0  0  0  0  0999 V2000
    4.4064   -2.0260   -2.7790 C   0  0  0  0  0  0  0  0  0  0  0  0
    4.4322   -1.3179   -1.4562 C   0  0  0  0  0  0  0  0  0  0  0  0
    5.6010   -1.2556   -0.6905 C   0  0  0  0  0  0  0  0  0  0  0  0
    5.6120   -0.5974    0.5459 C   0  0  0  0  0  0  0  0  0  0  0  0
    4.4599    0.0307    1.0386 C   0  0  0  0  0  0  0  0  0  0  0  0
    4.4934    0.7057    2.3833 C   0  0  0  0  0  0  0  0  0  0  0  0
    3.2931   -0.0149    0.2529 C   0  0  0  0  0  0  0  0  0  0  0  0
    2.0369    0.6391    0.6944 C   0  0  0  0  0  0  0  0  0  0  0  0
    1.5602    0.3893    1.7935 O   0  0  0  0  0  0  0  0  0  0  0  0
    1.5727    1.5946   -0.1965 N   0  0  0  0  0  0  0  0  0  0  0  0
    0.3478    2.2592   -0.0105 C   0  0  0  0  0  0  0  0  0  0  0  0
    0.2992    3.6425   -0.2236 C   0  0  0  0  0  0  0  0  0  0  0  0
   -0.8825    4.3687    0.0189 C   0  0  0  0  0  0  0  0  0  0  0  0
   -2.0424    3.7251    0.4555 C   0  0  0  0  0  0  0  0  0  0  0  0
   -2.0072    2.3475    0.6059 C   0  0  0  0  0  0  0  0  0  0  0  0
   -0.8332    1.6273    0.3582 C   0  0  0  0  0  0  0  0  0  0  0  0
   -1.1911    0.1944    0.3943 C   0  0  0  0  0  0  0  0  0  0  0  0
   -0.5204   -0.7354   -0.0197 O   0  0  0  0  0  0  0  0  0  0  0  0
   -2.5033    0.1147    0.8463 N   0  0  0  0  0  0  0  0  0  0  0  0
   -3.2558   -1.1346    0.8043 C   0  0  0  0  0  0  0  0  0  0  0  0
   -3.8129   -1.3924   -0.5989 C   0  0  0  0  0  0  0  0  0  0  0  0
   -4.4585   -2.7682   -0.6494 C   0  0  0  0  0  0  0  0  0  0  0  0
   -5.5302   -2.9049    0.4061 C   0  0  0  0  0  0  0  0  0  0  0  0
   -6.5298   -3.5962    0.2411 O   0  0  0  0  0  0  0  0  0  0  0  0
   -5.3194   -2.2356    1.5882 N   0  0  0  0  0  0  0  0  0  0  0  0
   -4.4014   -1.2367    1.8253 C   0  0  0  0  0  0  0  0  0  0  0  0
   -4.5223   -0.5180    2.8140 O   0  0  0  0  0  0  0  0  0  0  0  0
   -3.1184    1.4232    0.9823 C   0  0  0  0  0  0  0  0  0  0  0  0
    3.2799   -0.6850   -0.9809 C   0  0  0  0  0  0  0  0  0  0  0  0
    4.3759   -1.2983   -3.5957 H   0  0  0  0  0  0  0  0  0  0  0  0
    3.5291   -2.6778   -2.8421 H   0  0  0  0  0  0  0  0  0  0  0  0
    5.2928   -2.6585   -2.9167 H   0  0  0  0  0  0  0  0  0  0  0  0
    6.5121   -1.7337   -1.0430 H   0  0  0  0  0  0  0  0  0  0  0  0
    6.5324   -0.5786    1.1196 H   0  0  0  0  0  0  0  0  0  0  0  0
    4.0485    1.7078    2.3316 H   0  0  0  0  0  0  0  0  0  0  0  0
    3.9545    0.1044    3.1210 H   0  0  0  0  0  0  0  0  0  0  0  0
    5.5207    0.8365    2.7380 H   0  0  0  0  0  0  0  0  0  0  0  0
    2.2893    2.0567   -0.7403 H   0  0  0  0  0  0  0  0  0  0  0  0
    1.1881    4.1835   -0.5371 H   0  0  0  0  0  0  0  0  0  0  0  0
   -0.8880    5.4468   -0.1268 H   0  0  0  0  0  0  0  0  0  0  0  0
   -2.9500    4.2908    0.6449 H   0  0  0  0  0  0  0  0  0  0  0  0
   -2.5480   -1.9377    1.0564 H   0  0  0  0  0  0  0  0  0  0  0  0
   -3.0189   -1.3332   -1.3510 H   0  0  0  0  0  0  0  0  0  0  0  0
   -4.5575   -0.6279   -0.8578 H   0  0  0  0  0  0  0  0  0  0  0  0
   -4.9206   -2.9178   -1.6334 H   0  0  0  0  0  0  0  0  0  0  0  0
   -3.7179   -3.5627   -0.4934 H   0  0  0  0  0  0  0  0  0  0  0  0
   -6.0717   -2.3008    2.2601 H   0  0  0  0  0  0  0  0  0  0  0  0
   -3.9553    1.5101    0.2840 H   0  0  0  0  0  0  0  0  0  0  0  0
   -3.4368    1.5851    2.0147 H   0  0  0  0  0  0  0  0  0  0  0  0
    2.3556   -0.7377   -1.5518 H   0  0  0  0  0  0  0  0  0  0  0  0
  1  2  1  0
  2  3  1  0
  3  4  2  0
  4  5  1  0
  5  6  1  0
  5  7  2  0
  7  8  1  0
  8  9  2  0
  8 10  1  0
 10 11  1  0
 11 12  1  0
 12 13  2  0
 13 14  1  0
 14 15  2  0
 15 16  1  0
 16 17  1  0
 17 18  2  0
 17 19  1  0
 19 20  1  0
 20 21  1  0
 21 22  1  0
 22 23  1  0
 23 24  2  0
 23 25  1  0
 25 26  1  0
 26 27  2  0
 19 28  1  0
  7 29  1  0
 29  2  2  0
 16 11  2  0
 26 20  1  0
 28 15  1  0
  1 30  1  0
  1 31  1  0
  1 32  1  0
  3 33  1  0
  4 34  1  0
  6 35  1  0
  6 36  1  0
  6 37  1  0
 10 38  1  0
 12 39  1  0
 13 40  1  0
 14 41  1  0
 20 42  1  0
 21 43  1  0
 21 44  1  0
 22 45  1  0
 22 46  1  0
 25 47  1  0
 28 48  1  0
 28 49  1  0
 29 50  1  0
M  END
>  <linker>  (15) 
amide

>  <mw>  (15) 
391.43

>  <clogp>  (15) 
2.32

>  <tpsa>  (15) 
95.6

>  <cns_mpo_proxy>  (15) 
3.5

>  <qed>  (15) 
0.785

$$$$
GLUE0090
     RDKit          3D

 53 56  0  0  0  0  0  0  0  0999 V2000
    7.3670    0.0919   -1.6385 O   0  0  0  0  0  0  0  0  0  0  0  0
    6.3730    0.7532   -1.3527 C   0  0  0  0  0  0  0  0  0  0  0  0
    5.0095    0.4459   -1.9205 C   0  0  0  0  0  0  0  0  0  0  0  0
    4.0769    1.6391   -1.7783 C   0  0  0  0  0  0  0  0  0  0  0  0
    3.9850    2.0701   -0.3089 C   0  0  0  0  0  0  0  0  0  0  0  0
    3.3010    1.0827    0.5356 N   0  0  0  0  0  0  0  0  0  0  0  0
    3.7662    0.7128    1.8712 C   0  0  0  0  0  0  0  0  0  0  0  0
    2.6490   -0.1323    2.3843 C   0  0  0  0  0  0  0  0  0  0  0  0
    2.5522   -0.8439    3.5644 C   0  0  0  0  0  0  0  0  0  0  0  0
    1.3641   -1.5386    3.8135 C   0  0  0  0  0  0  0  0  0  0  0  0
    0.2922   -1.5125    2.8946 C   0  0  0  0  0  0  0  0  0  0  0  0
    0.3865   -0.7910    1.7026 C   0  0  0  0  0  0  0  0  0  0  0  0
   -0.6328   -0.6995    0.7322 N   0  0  0  0  0  0  0  0  0  0  0  0
   -1.8671   -1.3235    0.7375 C   0  0  0  0  0  0  0  0  0  0  0  0
   -2.2791   -2.0988    1.5928 O   0  0  0  0  0  0  0  0  0  0  0  0
   -2.6858   -0.9434   -0.4916 C   0  0  0  0  0  0  0  0  0  0  0  0
   -4.1047   -1.5452   -0.4987 C   0  0  0  0  0  0  0  0  0  0  0  0
   -4.7451   -1.4187   -1.8911 C   0  0  0  0  0  0  0  0  0  0  0  0
   -5.2372   -0.0057   -2.1990 C   0  0  0  0  0  0  0  0  0  0  0  0
   -6.0592    0.6153   -1.0687 C   0  0  0  0  0  0  0  0  0  0  0  0
   -6.3003   -0.3405    0.0940 C   0  0  0  0  0  0  0  0  0  0  0  0
   -4.9852   -0.9207    0.6074 C   0  0  0  0  0  0  0  0  0  0  0  0
    1.5825   -0.1177    1.4849 C   0  0  0  0  0  0  0  0  0  0  0  0
    1.9809    0.7058    0.3380 C   0  0  0  0  0  0  0  0  0  0  0  0
    1.2424    0.9788   -0.5908 O   0  0  0  0  0  0  0  0  0  0  0  0
    5.3993    2.4046    0.1924 C   0  0  0  0  0  0  0  0  0  0  0  0
    5.6046    3.0838    1.1980 O   0  0  0  0  0  0  0  0  0  0  0  0
    6.4458    1.7788   -0.4430 N   0  0  0  0  0  0  0  0  0  0  0  0
    5.1276    0.2025   -2.9818 H   0  0  0  0  0  0  0  0  0  0  0  0
    4.6114   -0.4358   -1.4076 H   0  0  0  0  0  0  0  0  0  0  0  0
    3.0964    1.3929   -2.1945 H   0  0  0  0  0  0  0  0  0  0  0  0
    4.4691    2.4740   -2.3741 H   0  0  0  0  0  0  0  0  0  0  0  0
    3.3953    2.9948   -0.2614 H   0  0  0  0  0  0  0  0  0  0  0  0
    4.7030    0.1540    1.7902 H   0  0  0  0  0  0  0  0  0  0  0  0
    3.8745    1.6114    2.4861 H   0  0  0  0  0  0  0  0  0  0  0  0
    3.3657   -0.8663    4.2835 H   0  0  0  0  0  0  0  0  0  0  0  0
    1.2553   -2.1089    4.7346 H   0  0  0  0  0  0  0  0  0  0  0  0
   -0.6073   -2.0668    3.1519 H   0  0  0  0  0  0  0  0  0  0  0  0
   -0.4109   -0.1080   -0.0704 H   0  0  0  0  0  0  0  0  0  0  0  0
   -2.7353    0.1501   -0.5555 H   0  0  0  0  0  0  0  0  0  0  0  0
   -2.1301   -1.3047   -1.3662 H   0  0  0  0  0  0  0  0  0  0  0  0
   -4.0106   -2.6203   -0.2897 H   0  0  0  0  0  0  0  0  0  0  0  0
   -5.5964   -2.1111   -1.9529 H   0  0  0  0  0  0  0  0  0  0  0  0
   -4.0426   -1.7408   -2.6702 H   0  0  0  0  0  0  0  0  0  0  0  0
   -5.8381   -0.0309   -3.1161 H   0  0  0  0  0  0  0  0  0  0  0  0
   -4.3812    0.6435   -2.4212 H   0  0  0  0  0  0  0  0  0  0  0  0
   -7.0210    0.9668   -1.4605 H   0  0  0  0  0  0  0  0  0  0  0  0
   -5.5372    1.5079   -0.7004 H   0  0  0  0  0  0  0  0  0  0  0  0
   -6.8126    0.1879    0.9062 H   0  0  0  0  0  0  0  0  0  0  0  0
   -6.9689   -1.1522   -0.2205 H   0  0  0  0  0  0  0  0  0  0  0  0
   -4.4402   -0.1273    1.1342 H   0  0  0  0  0  0  0  0  0  0  0  0
   -5.2079   -1.6835    1.3639 H   0  0  0  0  0  0  0  0  0  0  0  0
    7.3607    1.9403   -0.0438 H   0  0  0  0  0  0  0  0  0  0  0  0
  1  2  2  0
  2  3  1  0
  3  4  1  0
  4  5  1  0
  5  6  1  0
  6  7  1  0
  7  8  1  0
  8  9  2  0
  9 10  1  0
 10 11  2  0
 11 12  1  0
 12 13  1  0
 13 14  1  0
 14 15  2  0
 14 16  1  0
 16 17  1  0
 17 18  1  0
 18 19  1  0
 19 20  1  0
 20 21  1  0
 21 22  1  0
 12 23  2  0
 23 24  1  0
 24 25  2  0
  5 26  1  0
 26 27  2  0
 26 28  1  0
 28  2  1  0
 24  6  1  0
 23  8  1  0
 22 17  1  0
  3 29  1  0
  3 30  1  0
  4 31  1  0
  4 32  1  0
  5 33  1  0
  7 34  1  0
  7 35  1  0
  9 36  1  0
 10 37  1  0
 11 38  1  0
 13 39  1  0
 16 40  1  0
 16 41  1  0
 17 42  1  0
 18 43  1  0
 18 44  1  0
 19 45  1  0
 19 46  1  0
 20 47  1  0
 20 48  1  0
 21 49  1  0
 21 50  1  0
 22 51  1  0
 22 52  1  0
 28 53  1  0
M  END
>  <linker>  (16) 
acetamide

>  <mw>  (16) 
383.45

>  <clogp>  (16) 
2.36

>  <tpsa>  (16) 
95.6

>  <cns_mpo_proxy>  (16) 
3.5

>  <qed>  (16) 
0.78

$$$$
GLUE0235
     RDKit          3D

 48 51  0  0  0  0  0  0  0  0999 V2000
   -4.2717    2.0915   -1.6112 C   0  0  0  0  0  0  0  0  0  0  0  0
   -5.0998    0.8565   -1.4203 C   0  0  0  0  0  0  0  0  0  0  0  0
   -6.4871    0.8919   -1.6091 C   0  0  0  0  0  0  0  0  0  0  0  0
   -7.2582   -0.2607   -1.4324 C   0  0  0  0  0  0  0  0  0  0  0  0
   -6.6530   -1.4632   -1.0673 C   0  0  0  0  0  0  0  0  0  0  0  0
   -5.2748   -1.5163   -0.8719 C   0  0  0  0  0  0  0  0  0  0  0  0
   -4.5157   -0.3554   -1.0309 C   0  0  0  0  0  0  0  0  0  0  0  0
   -3.1230   -0.4179   -0.8826 O   0  0  0  0  0  0  0  0  0  0  0  0
   -2.6712   -0.5495    0.4258 C   0  0  0  0  0  0  0  0  0  0  0  0
   -3.3891   -0.6220    1.4135 O   0  0  0  0  0  0  0  0  0  0  0  0
   -1.3024   -0.5755    0.4026 N   0  0  0  0  0  0  0  0  0  0  0  0
   -0.4096   -0.6980    1.4815 C   0  0  0  0  0  0  0  0  0  0  0  0
   -0.7925   -0.8439    2.8170 C   0  0  0  0  0  0  0  0  0  0  0  0
    0.1738   -0.9651    3.8389 C   0  0  0  0  0  0  0  0  0  0  0  0
    1.5422   -0.9436    3.5514 C   0  0  0  0  0  0  0  0  0  0  0  0
    1.9231   -0.7951    2.2316 C   0  0  0  0  0  0  0  0  0  0  0  0
    0.9564   -0.6767    1.2312 C   0  0  0  0  0  0  0  0  0  0  0  0
    1.6574   -0.5247   -0.0486 C   0  0  0  0  0  0  0  0  0  0  0  0
    1.1032   -0.4293   -1.1278 O   0  0  0  0  0  0  0  0  0  0  0  0
    3.0145   -0.5031    0.2259 N   0  0  0  0  0  0  0  0  0  0  0  0
    4.0392   -0.4569   -0.8199 C   0  0  0  0  0  0  0  0  0  0  0  0
    4.0387    0.8769   -1.5747 C   0  0  0  0  0  0  0  0  0  0  0  0
    4.5694    1.9892   -0.6844 C   0  0  0  0  0  0  0  0  0  0  0  0
    5.9404    1.6533   -0.1533 C   0  0  0  0  0  0  0  0  0  0  0  0
    6.6901    2.5047    0.3150 O   0  0  0  0  0  0  0  0  0  0  0  0
    6.2910    0.3279   -0.1423 N   0  0  0  0  0  0  0  0  0  0  0  0
    5.4541   -0.7505   -0.3016 C   0  0  0  0  0  0  0  0  0  0  0  0
    5.8023   -1.8632    0.0909 O   0  0  0  0  0  0  0  0  0  0  0  0
    3.2914   -0.7539    1.6366 C   0  0  0  0  0  0  0  0  0  0  0  0
   -3.4673    1.9051   -2.3299 H   0  0  0  0  0  0  0  0  0  0  0  0
   -3.8385    2.4065   -0.6568 H   0  0  0  0  0  0  0  0  0  0  0  0
   -4.8726    2.9206   -1.9988 H   0  0  0  0  0  0  0  0  0  0  0  0
   -6.9799    1.8175   -1.8970 H   0  0  0  0  0  0  0  0  0  0  0  0
   -8.3344   -0.2194   -1.5814 H   0  0  0  0  0  0  0  0  0  0  0  0
   -7.2559   -2.3571   -0.9332 H   0  0  0  0  0  0  0  0  0  0  0  0
   -4.8004   -2.4505   -0.5892 H   0  0  0  0  0  0  0  0  0  0  0  0
   -0.8905   -0.4889   -0.5255 H   0  0  0  0  0  0  0  0  0  0  0  0
   -1.8395   -0.8713    3.1073 H   0  0  0  0  0  0  0  0  0  0  0  0
   -0.1589   -1.0805    4.8694 H   0  0  0  0  0  0  0  0  0  0  0  0
    2.2747   -1.0439    4.3469 H   0  0  0  0  0  0  0  0  0  0  0  0
    3.7909   -1.2452   -1.5411 H   0  0  0  0  0  0  0  0  0  0  0  0
    3.0375    1.1381   -1.9321 H   0  0  0  0  0  0  0  0  0  0  0  0
    4.6808    0.7887   -2.4614 H   0  0  0  0  0  0  0  0  0  0  0  0
    4.6415    2.9145   -1.2650 H   0  0  0  0  0  0  0  0  0  0  0  0
    3.9051    2.1684    0.1674 H   0  0  0  0  0  0  0  0  0  0  0  0
    7.1885    0.1239    0.2763 H   0  0  0  0  0  0  0  0  0  0  0  0
    3.7892   -1.7206    1.7515 H   0  0  0  0  0  0  0  0  0  0  0  0
    3.8902    0.0667    2.0411 H   0  0  0  0  0  0  0  0  0  0  0  0
  1  2  1  0
  2  3  2  0
  3  4  1  0
  4  5  2  0
  5  6  1  0
  6  7  2  0
  7  8  1  0
  8  9  1  0
  9 10  2  0
  9 11  1  0
 11 12  1  0
 12 13  1  0
 13 14  2  0
 14 15  1  0
 15 16  2  0
 16 17  1  0
 17 18  1  0
 18 19  2  0
 18 20  1  0
 20 21  1  0
 21 22  1  0
 22 23  1  0
 23 24  1  0
 24 25  2  0
 24 26  1  0
 26 27  1  0
 27 28  2  0
 20 29  1  0
  7  2  1  0
 17 12  2  0
 27 21  1  0
 29 16  1  0
  1 30  1  0
  1 31  1  0
  1 32  1  0
  3 33  1  0
  4 34  1  0
  5 35  1  0
  6 36  1  0
 11 37  1  0
 13 38  1  0
 14 39  1  0
 15 40  1  0
 21 41  1  0
 22 42  1  0
 22 43  1  0
 23 44  1  0
 23 45  1  0
 26 46  1  0
 29 47  1  0
 29 48  1  0
M  END
>  <linker>  (17) 
carbamate

>  <mw>  (17) 
393.4

>  <clogp>  (17) 
2.37

>  <tpsa>  (17) 
104.8

>  <cns_mpo_proxy>  (17) 
3.5

>  <qed>  (17) 
0.779

$$$$
GLUE0250
     RDKit          3D

 48 51  0  0  0  0  0  0  0  0999 V2000
   -8.2723    0.4897   -1.3212 C   0  0  0  0  0  0  0  0  0  0  0  0
   -6.7943    0.3732   -1.0904 C   0  0  0  0  0  0  0  0  0  0  0  0
   -5.9400    1.4371   -1.4159 C   0  0  0  0  0  0  0  0  0  0  0  0
   -4.5696    1.3438   -1.1704 C   0  0  0  0  0  0  0  0  0  0  0  0
   -4.0609    0.1925   -0.5754 C   0  0  0  0  0  0  0  0  0  0  0  0
   -2.6757    0.1064   -0.3941 O   0  0  0  0  0  0  0  0  0  0  0  0
   -2.2417    0.0805    0.9278 C   0  0  0  0  0  0  0  0  0  0  0  0
   -2.9713    0.1412    1.9079 O   0  0  0  0  0  0  0  0  0  0  0  0
   -0.8765   -0.0253    0.9261 N   0  0  0  0  0  0  0  0  0  0  0  0
    0.0001   -0.0779    2.0241 C   0  0  0  0  0  0  0  0  0  0  0  0
   -0.3986   -0.0216    3.3619 C   0  0  0  0  0  0  0  0  0  0  0  0
    0.5518   -0.0730    4.4043 C   0  0  0  0  0  0  0  0  0  0  0  0
    1.9196   -0.1815    4.1352 C   0  0  0  0  0  0  0  0  0  0  0  0
    2.3155   -0.2425    2.8129 C   0  0  0  0  0  0  0  0  0  0  0  0
    1.3651   -0.1923    1.7919 C   0  0  0  0  0  0  0  0  0  0  0  0
    2.0819   -0.2764    0.5137 C   0  0  0  0  0  0  0  0  0  0  0  0
    1.5450   -0.1834   -0.5747 O   0  0  0  0  0  0  0  0  0  0  0  0
    3.4237   -0.4589    0.8066 N   0  0  0  0  0  0  0  0  0  0  0  0
    4.5022   -0.3674   -0.1725 C   0  0  0  0  0  0  0  0  0  0  0  0
    4.2858   -1.2390   -1.4089 C   0  0  0  0  0  0  0  0  0  0  0  0
    5.4903   -1.1153   -2.3290 C   0  0  0  0  0  0  0  0  0  0  0  0
    5.7444    0.3245   -2.7100 C   0  0  0  0  0  0  0  0  0  0  0  0
    6.3549    0.6337   -3.7293 O   0  0  0  0  0  0  0  0  0  0  0  0
    5.3314    1.2807   -1.8165 N   0  0  0  0  0  0  0  0  0  0  0  0
    4.7595    1.0917   -0.5794 C   0  0  0  0  0  0  0  0  0  0  0  0
    4.5731    2.0481    0.1717 O   0  0  0  0  0  0  0  0  0  0  0  0
    3.6862   -0.3380    2.2336 C   0  0  0  0  0  0  0  0  0  0  0  0
   -4.8903   -0.8784   -0.2493 C   0  0  0  0  0  0  0  0  0  0  0  0
   -6.2602   -0.7798   -0.4965 C   0  0  0  0  0  0  0  0  0  0  0  0
   -8.4848    1.1421   -2.1745 H   0  0  0  0  0  0  0  0  0  0  0  0
   -8.7107   -0.4887   -1.5441 H   0  0  0  0  0  0  0  0  0  0  0  0
   -8.7580    0.9019   -0.4317 H   0  0  0  0  0  0  0  0  0  0  0  0
   -6.3382    2.3437   -1.8661 H   0  0  0  0  0  0  0  0  0  0  0  0
   -3.9093    2.1637   -1.4361 H   0  0  0  0  0  0  0  0  0  0  0  0
   -0.4516   -0.0582    0.0004 H   0  0  0  0  0  0  0  0  0  0  0  0
   -1.4459    0.0684    3.6382 H   0  0  0  0  0  0  0  0  0  0  0  0
    0.2071   -0.0218    5.4359 H   0  0  0  0  0  0  0  0  0  0  0  0
    2.6405   -0.2118    4.9463 H   0  0  0  0  0  0  0  0  0  0  0  0
    5.4128   -0.7132    0.3353 H   0  0  0  0  0  0  0  0  0  0  0  0
    3.3920   -0.9302   -1.9626 H   0  0  0  0  0  0  0  0  0  0  0  0
    4.1415   -2.2858   -1.1178 H   0  0  0  0  0  0  0  0  0  0  0  0
    5.3100   -1.6893   -3.2444 H   0  0  0  0  0  0  0  0  0  0  0  0
    6.3932   -1.5073   -1.8484 H   0  0  0  0  0  0  0  0  0  0  0  0
    5.5319    2.2386   -2.0689 H   0  0  0  0  0  0  0  0  0  0  0  0
    4.2198   -1.2294    2.5744 H   0  0  0  0  0  0  0  0  0  0  0  0
    4.2624    0.5706    2.4297 H   0  0  0  0  0  0  0  0  0  0  0  0
   -4.4822   -1.7772    0.2027 H   0  0  0  0  0  0  0  0  0  0  0  0
   -6.9096   -1.6086   -0.2235 H   0  0  0  0  0  0  0  0  0  0  0  0
  1  2  1  0
  2  3  1  0
  3  4  2  0
  4  5  1  0
  5  6  1  0
  6  7  1  0
  7  8  2  0
  7  9  1  0
  9 10  1  0
 10 11  1  0
 11 12  2  0
 12 13  1  0
 13 14  2  0
 14 15  1  0
 15 16  1  0
 16 17  2  0
 16 18  1  0
 18 19  1  0
 19 20  1  0
 20 21  1  0
 21 22  1  0
 22 23  2  0
 22 24  1  0
 24 25  1  0
 25 26  2  0
 18 27  1  0
  5 28  2  0
 28 29  1  0
 29  2  2  0
 15 10  2  0
 25 19  1  0
 27 14  1  0
  1 30  1  0
  1 31  1  0
  1 32  1  0
  3 33  1  0
  4 34  1  0
  9 35  1  0
 11 36  1  0
 12 37  1  0
 13 38  1  0
 19 39  1  0
 20 40  1  0
 20 41  1  0
 21 42  1  0
 21 43  1  0
 24 44  1  0
 27 45  1  0
 27 46  1  0
 28 47  1  0
 29 48  1  0
M  END
>  <linker>  (18) 
carbamate

>  <mw>  (18) 
393.4

>  <clogp>  (18) 
2.37

>  <tpsa>  (18) 
104.8

>  <cns_mpo_proxy>  (18) 
3.5

>  <qed>  (18) 
0.779

$$$$
GLUE0696
     RDKit          3D

 48 51  0  0  0  0  0  0  0  0999 V2000
    7.2925    1.7700   -0.3204 C   0  0  0  0  0  0  0  0  0  0  0  0
    6.3868    0.5892   -0.5065 C   0  0  0  0  0  0  0  0  0  0  0  0
    6.9099   -0.6526   -0.8960 C   0  0  0  0  0  0  0  0  0  0  0  0
    6.0665   -1.7475   -1.1073 C   0  0  0  0  0  0  0  0  0  0  0  0
    4.6905   -1.6120   -0.9376 C   0  0  0  0  0  0  0  0  0  0  0  0
    4.1748   -0.3787   -0.5460 C   0  0  0  0  0  0  0  0  0  0  0  0
    2.7929   -0.1986   -0.4281 O   0  0  0  0  0  0  0  0  0  0  0  0
    2.2248   -0.7691    0.7060 C   0  0  0  0  0  0  0  0  0  0  0  0
    2.8416   -1.3733    1.5728 O   0  0  0  0  0  0  0  0  0  0  0  0
    0.8770   -0.5299    0.6744 N   0  0  0  0  0  0  0  0  0  0  0  0
   -0.1049   -0.9219    1.6013 C   0  0  0  0  0  0  0  0  0  0  0  0
    0.1465   -1.6632    2.7585 C   0  0  0  0  0  0  0  0  0  0  0  0
   -0.9028   -2.0227    3.6315 C   0  0  0  0  0  0  0  0  0  0  0  0
   -2.2251   -1.6515    3.3689 C   0  0  0  0  0  0  0  0  0  0  0  0
   -2.4749   -0.9134    2.2280 C   0  0  0  0  0  0  0  0  0  0  0  0
   -1.4274   -0.5626    1.3747 C   0  0  0  0  0  0  0  0  0  0  0  0
   -1.9986    0.2095    0.2647 C   0  0  0  0  0  0  0  0  0  0  0  0
   -1.3566    0.6022   -0.6920 O   0  0  0  0  0  0  0  0  0  0  0  0
   -3.3498    0.3682    0.5272 N   0  0  0  0  0  0  0  0  0  0  0  0
   -4.3233    0.8799   -0.4324 C   0  0  0  0  0  0  0  0  0  0  0  0
   -3.9217    2.2117   -1.0652 C   0  0  0  0  0  0  0  0  0  0  0  0
   -5.0301    2.6822   -1.9941 C   0  0  0  0  0  0  0  0  0  0  0  0
   -5.3392    1.6449   -3.0483 C   0  0  0  0  0  0  0  0  0  0  0  0
   -5.8582    1.9376   -4.1216 O   0  0  0  0  0  0  0  0  0  0  0  0
   -5.0871    0.3368   -2.7188 N   0  0  0  0  0  0  0  0  0  0  0  0
   -4.6314   -0.1612   -1.5196 C   0  0  0  0  0  0  0  0  0  0  0  0
   -4.5829   -1.3757   -1.3291 O   0  0  0  0  0  0  0  0  0  0  0  0
   -3.7681   -0.4024    1.6897 C   0  0  0  0  0  0  0  0  0  0  0  0
    5.0026    0.7260   -0.3503 C   0  0  0  0  0  0  0  0  0  0  0  0
    6.8848    2.4615    0.4245 H   0  0  0  0  0  0  0  0  0  0  0  0
    7.4130    2.3023   -1.2689 H   0  0  0  0  0  0  0  0  0  0  0  0
    8.2783    1.4535    0.0362 H   0  0  0  0  0  0  0  0  0  0  0  0
    7.9816   -0.7746   -1.0386 H   0  0  0  0  0  0  0  0  0  0  0  0
    6.4846   -2.7049   -1.4067 H   0  0  0  0  0  0  0  0  0  0  0  0
    4.0324   -2.4586   -1.1055 H   0  0  0  0  0  0  0  0  0  0  0  0
    0.5549   -0.0062   -0.1383 H   0  0  0  0  0  0  0  0  0  0  0  0
    1.1511   -1.9873    3.0175 H   0  0  0  0  0  0  0  0  0  0  0  0
   -0.6725   -2.6050    4.5223 H   0  0  0  0  0  0  0  0  0  0  0  0
   -3.0240   -1.9424    4.0439 H   0  0  0  0  0  0  0  0  0  0  0  0
   -5.2575    1.0330    0.1248 H   0  0  0  0  0  0  0  0  0  0  0  0
   -2.9989    2.1135   -1.6475 H   0  0  0  0  0  0  0  0  0  0  0  0
   -3.7374    2.9634   -0.2891 H   0  0  0  0  0  0  0  0  0  0  0  0
   -4.7176    3.6040   -2.4963 H   0  0  0  0  0  0  0  0  0  0  0  0
   -5.9496    2.8880   -1.4354 H   0  0  0  0  0  0  0  0  0  0  0  0
   -5.3211   -0.3501   -3.4225 H   0  0  0  0  0  0  0  0  0  0  0  0
   -4.2773    0.2619    2.3931 H   0  0  0  0  0  0  0  0  0  0  0  0
   -4.4178   -1.2244    1.3763 H   0  0  0  0  0  0  0  0  0  0  0  0
    4.5687    1.6827   -0.0744 H   0  0  0  0  0  0  0  0  0  0  0  0
  1  2  1  0
  2  3  2  0
  3  4  1  0
  4  5  2  0
  5  6  1  0
  6  7  1  0
  7  8  1  0
  8  9  2  0
  8 10  1  0
 10 11  1  0
 11 12  1  0
 12 13  2  0
 13 14  1  0
 14 15  2  0
 15 16  1  0
 16 17  1  0
 17 18  2  0
 17 19  1  0
 19 20  1  0
 20 21  1  0
 21 22  1  0
 22 23  1  0
 23 24  2  0
 23 25  1  0
 25 26  1  0
 26 27  2  0
 19 28  1  0
  6 29  2  0
 29  2  1  0
 16 11  2  0
 26 20  1  0
 28 15  1  0
  1 30  1  0
  1 31  1  0
  1 32  1  0
  3 33  1  0
  4 34  1  0
  5 35  1  0
 10 36  1  0
 12 37  1  0
 13 38  1  0
 14 39  1  0
 20 40  1  0
 21 41  1  0
 21 42  1  0
 22 43  1  0
 22 44  1  0
 25 45  1  0
 28 46  1  0
 28 47  1  0
 29 48  1  0
M  END
>  <linker>  (19) 
carbamate

>  <mw>  (19) 
393.4

>  <clogp>  (19) 
2.37

>  <tpsa>  (19) 
104.8

>  <cns_mpo_proxy>  (19) 
3.5

>  <qed>  (19) 
0.779

$$$$
GLUE1187
     RDKit          3D

 55 57  0  0  0  0  0  0  0  0999 V2000
   -4.7361    1.1775    0.9260 C   0  0  0  0  0  0  0  0  0  0  0  0
   -4.3765    0.0554   -0.0668 C   0  0  0  0  0  0  0  0  0  0  0  0
   -2.8413   -0.1384   -0.0632 C   0  0  0  0  0  0  0  0  0  0  0  0
   -2.0761    0.9758   -0.7737 C   0  0  0  0  0  0  0  0  0  0  0  0
   -2.6320    1.8332   -1.4503 O   0  0  0  0  0  0  0  0  0  0  0  0
   -0.7135    0.8592   -0.5691 N   0  0  0  0  0  0  0  0  0  0  0  0
    0.3119    1.6819   -1.0792 C   0  0  0  0  0  0  0  0  0  0  0  0
    0.1121    2.7829   -1.9147 C   0  0  0  0  0  0  0  0  0  0  0  0
    1.2040    3.5445   -2.3849 C   0  0  0  0  0  0  0  0  0  0  0  0
    2.5189    3.2245   -2.0323 C   0  0  0  0  0  0  0  0  0  0  0  0
    2.7191    2.1391   -1.2015 C   0  0  0  0  0  0  0  0  0  0  0  0
    1.6293    1.3966   -0.7430 C   0  0  0  0  0  0  0  0  0  0  0  0
    2.1499    0.3232    0.1113 C   0  0  0  0  0  0  0  0  0  0  0  0
    1.4614   -0.5361    0.6323 O   0  0  0  0  0  0  0  0  0  0  0  0
    3.5224    0.4950    0.1963 N   0  0  0  0  0  0  0  0  0  0  0  0
    4.3973   -0.5289    0.7556 C   0  0  0  0  0  0  0  0  0  0  0  0
    5.5664    0.0643    1.5360 C   0  0  0  0  0  0  0  0  0  0  0  0
    6.3813   -1.0596    2.1579 C   0  0  0  0  0  0  0  0  0  0  0  0
    6.8463   -2.0413    1.1078 C   0  0  0  0  0  0  0  0  0  0  0  0
    7.9339   -2.6059    1.1722 O   0  0  0  0  0  0  0  0  0  0  0  0
    5.9787   -2.2913    0.0750 N   0  0  0  0  0  0  0  0  0  0  0  0
    4.9452   -1.4756   -0.3262 C   0  0  0  0  0  0  0  0  0  0  0  0
    4.5228   -1.5303   -1.4788 O   0  0  0  0  0  0  0  0  0  0  0  0
    3.9920    1.5613   -0.6798 C   0  0  0  0  0  0  0  0  0  0  0  0
   -5.1749   -1.2784    0.1924 C   0  0  0  0  0  0  0  0  0  0  0  0
   -6.6924   -1.0004    0.2698 C   0  0  0  0  0  0  0  0  0  0  0  0
   -4.9576   -2.2645   -0.9780 C   0  0  0  0  0  0  0  0  0  0  0  0
   -4.7450   -1.9743    1.4976 C   0  0  0  0  0  0  0  0  0  0  0  0
   -4.1549    2.0841    0.7282 H   0  0  0  0  0  0  0  0  0  0  0  0
   -5.7890    1.4625    0.8442 H   0  0  0  0  0  0  0  0  0  0  0  0
   -4.5378    0.8826    1.9607 H   0  0  0  0  0  0  0  0  0  0  0  0
   -4.6750    0.4147   -1.0617 H   0  0  0  0  0  0  0  0  0  0  0  0
   -2.5624   -1.0617   -0.5799 H   0  0  0  0  0  0  0  0  0  0  0  0
   -2.4751   -0.2106    0.9685 H   0  0  0  0  0  0  0  0  0  0  0  0
   -0.3910    0.0836    0.0125 H   0  0  0  0  0  0  0  0  0  0  0  0
   -0.8842    3.0810   -2.2298 H   0  0  0  0  0  0  0  0  0  0  0  0
    1.0116    4.3936   -3.0387 H   0  0  0  0  0  0  0  0  0  0  0  0
    3.3493    3.8143   -2.4079 H   0  0  0  0  0  0  0  0  0  0  0  0
    3.7902   -1.1521    1.4255 H   0  0  0  0  0  0  0  0  0  0  0  0
    5.2019    0.7384    2.3197 H   0  0  0  0  0  0  0  0  0  0  0  0
    6.2101    0.6560    0.8723 H   0  0  0  0  0  0  0  0  0  0  0  0
    7.2609   -0.6388    2.6568 H   0  0  0  0  0  0  0  0  0  0  0  0
    5.7948   -1.6070    2.9039 H   0  0  0  0  0  0  0  0  0  0  0  0
    6.3448   -2.8986   -0.6467 H   0  0  0  0  0  0  0  0  0  0  0  0
    4.5595    2.2871   -0.0913 H   0  0  0  0  0  0  0  0  0  0  0  0
    4.5963    1.1449   -1.4900 H   0  0  0  0  0  0  0  0  0  0  0  0
   -7.0366   -0.4437   -0.6089 H   0  0  0  0  0  0  0  0  0  0  0  0
   -6.9571   -0.4270    1.1643 H   0  0  0  0  0  0  0  0  0  0  0  0
   -7.2648   -1.9345    0.3146 H   0  0  0  0  0  0  0  0  0  0  0  0
   -3.9276   -2.6294   -1.0278 H   0  0  0  0  0  0  0  0  0  0  0  0
   -5.5982   -3.1482   -0.8735 H   0  0  0  0  0  0  0  0  0  0  0  0
   -5.1979   -1.7954   -1.9386 H   0  0  0  0  0  0  0  0  0  0  0  0
   -3.6880   -2.2587    1.4766 H   0  0  0  0  0  0  0  0  0  0  0  0
   -4.9055   -1.3341    2.3705 H   0  0  0  0  0  0  0  0  0  0  0  0
   -5.3221   -2.8925    1.6591 H   0  0  0  0  0  0  0  0  0  0  0  0
  1  2  1  0
  2  3  1  0
  3  4  1  0
  4  5  2  0
  4  6  1  0
  6  7  1  0
  7  8  1  0
  8  9  2  0
  9 10  1  0
 10 11  2  0
 11 12  1  0
 12 13  1  0
 13 14  2  0
 13 15  1  0
 15 16  1  0
 16 17  1  0
 17 18  1  0
 18 19  1  0
 19 20  2  0
 19 21  1  0
 21 22  1  0
 22 23  2  0
 15 24  1  0
  2 25  1  0
 25 26  1  0
 25 27  1  0
 25 28  1  0
 12  7  2  0
 22 16  1  0
 24 11  1  0
  1 29  1  0
  1 30  1  0
  1 31  1  0
  2 32  1  0
  3 33  1  0
  3 34  1  0
  6 35  1  0
  8 36  1  0
  9 37  1  0
 10 38  1  0
 16 39  1  0
 17 40  1  0
 17 41  1  0
 18 42  1  0
 18 43  1  0
 21 44  1  0
 24 45  1  0
 24 46  1  0
 26 47  1  0
 26 48  1  0
 26 49  1  0
 27 50  1  0
 27 51  1  0
 27 52  1  0
 28 53  1  0
 28 54  1  0
 28 55  1  0
M  END
>  <linker>  (20) 
acetamide

>  <mw>  (20) 
385.46

>  <clogp>  (20) 
2.46

>  <tpsa>  (20) 
95.6

>  <cns_mpo_proxy>  (20) 
3.5

>  <qed>  (20) 
0.778

$$$$
GLUE0059
     RDKit          3D

 44 47  0  0  0  0  0  0  0  0999 V2000
   -5.2907    0.1702    3.6660 O   0  0  0  0  0  0  0  0  0  0  0  0
   -4.6700    0.1458    2.6072 C   0  0  0  0  0  0  0  0  0  0  0  0
   -4.4471    1.3870    1.7751 C   0  0  0  0  0  0  0  0  0  0  0  0
   -3.2169    1.2454    0.8925 C   0  0  0  0  0  0  0  0  0  0  0  0
   -3.3667    0.0066    0.0103 C   0  0  0  0  0  0  0  0  0  0  0  0
   -2.2599   -0.1866   -0.9211 N   0  0  0  0  0  0  0  0  0  0  0  0
   -2.4724   -0.7791   -2.2349 C   0  0  0  0  0  0  0  0  0  0  0  0
   -1.0817   -1.0049   -2.7230 C   0  0  0  0  0  0  0  0  0  0  0  0
   -0.6396   -1.4851   -3.9404 C   0  0  0  0  0  0  0  0  0  0  0  0
    0.7397   -1.6234   -4.1274 C   0  0  0  0  0  0  0  0  0  0  0  0
    1.6558   -1.2888   -3.1066 C   0  0  0  0  0  0  0  0  0  0  0  0
    1.2109   -0.8043   -1.8751 C   0  0  0  0  0  0  0  0  0  0  0  0
    2.0472   -0.4544   -0.7939 N   0  0  0  0  0  0  0  0  0  0  0  0
    3.4260   -0.4718   -0.7546 C   0  0  0  0  0  0  0  0  0  0  0  0
    4.1747   -0.7355   -1.6885 O   0  0  0  0  0  0  0  0  0  0  0  0
    4.0325   -0.0948    0.5578 C   0  0  0  0  0  0  0  0  0  0  0  0
    3.3891   -0.3405    1.7799 C   0  0  0  0  0  0  0  0  0  0  0  0
    4.0035    0.0279    2.9815 C   0  0  0  0  0  0  0  0  0  0  0  0
    5.2604    0.6315    2.9648 C   0  0  0  0  0  0  0  0  0  0  0  0
    6.0112    1.0820    4.4454 Cl  0  0  0  0  0  0  0  0  0  0  0  0
    5.9149    0.8654    1.7572 C   0  0  0  0  0  0  0  0  0  0  0  0
    5.3036    0.4984    0.5552 C   0  0  0  0  0  0  0  0  0  0  0  0
   -0.1642   -0.6758   -1.7246 C   0  0  0  0  0  0  0  0  0  0  0  0
   -0.9231   -0.2082   -0.5585 C   0  0  0  0  0  0  0  0  0  0  0  0
   -0.4155    0.0791    0.5107 O   0  0  0  0  0  0  0  0  0  0  0  0
   -3.5908   -1.2444    0.8737 C   0  0  0  0  0  0  0  0  0  0  0  0
   -3.3339   -2.3862    0.4944 O   0  0  0  0  0  0  0  0  0  0  0  0
   -4.2110   -1.0372    2.0845 N   0  0  0  0  0  0  0  0  0  0  0  0
   -5.3451    1.5621    1.1726 H   0  0  0  0  0  0  0  0  0  0  0  0
   -4.3139    2.2382    2.4515 H   0  0  0  0  0  0  0  0  0  0  0  0
   -2.3335    1.1705    1.5364 H   0  0  0  0  0  0  0  0  0  0  0  0
   -3.0928    2.1419    0.2743 H   0  0  0  0  0  0  0  0  0  0  0  0
   -4.2706    0.1281   -0.6019 H   0  0  0  0  0  0  0  0  0  0  0  0
   -3.0135   -1.7240   -2.1322 H   0  0  0  0  0  0  0  0  0  0  0  0
   -3.0223   -0.0708   -2.8605 H   0  0  0  0  0  0  0  0  0  0  0  0
   -1.3327   -1.7552   -4.7310 H   0  0  0  0  0  0  0  0  0  0  0  0
    1.1209   -2.0016   -5.0745 H   0  0  0  0  0  0  0  0  0  0  0  0
    2.7140   -1.4264   -3.3113 H   0  0  0  0  0  0  0  0  0  0  0  0
    1.5473   -0.1103    0.0256 H   0  0  0  0  0  0  0  0  0  0  0  0
    2.4233   -0.8379    1.8230 H   0  0  0  0  0  0  0  0  0  0  0  0
    3.4997   -0.1659    3.9253 H   0  0  0  0  0  0  0  0  0  0  0  0
    6.8984    1.3279    1.7419 H   0  0  0  0  0  0  0  0  0  0  0  0
    5.8204    0.6777   -0.3863 H   0  0  0  0  0  0  0  0  0  0  0  0
   -4.3856   -1.8640    2.6394 H   0  0  0  0  0  0  0  0  0  0  0  0
  1  2  2  0
  2  3  1  0
  3  4  1  0
  4  5  1  0
  5  6  1  0
  6  7  1  0
  7  8  1  0
  8  9  2  0
  9 10  1  0
 10 11  2  0
 11 12  1  0
 12 13  1  0
 13 14  1  0
 14 15  2  0
 14 16  1  0
 16 17  1  0
 17 18  2  0
 18 19  1  0
 19 20  1  0
 19 21  2  0
 21 22  1  0
 12 23  2  0
 23 24  1  0
 24 25  2  0
  5 26  1  0
 26 27  2  0
 26 28  1  0
 28  2  1  0
 24  6  1  0
 23  8  1  0
 22 16  2  0
  3 29  1  0
  3 30  1  0
  4 31  1  0
  4 32  1  0
  5 33  1  0
  7 34  1  0
  7 35  1  0
  9 36  1  0
 10 37  1  0
 11 38  1  0
 13 39  1  0
 17 40  1  0
 18 41  1  0
 21 42  1  0
 22 43  1  0
 28 44  1  0
M  END
>  <linker>  (21) 
amide

>  <mw>  (21) 
397.82

>  <clogp>  (21) 
2.35

>  <tpsa>  (21) 
95.6

>  <cns_mpo_proxy>  (21) 
3.5

>  <qed>  (21) 
0.777

$$$$
GLUE0092
     RDKit          3D

 51 54  0  0  0  0  0  0  0  0999 V2000
    7.0978   -3.7492    1.4819 O   0  0  0  0  0  0  0  0  0  0  0  0
    6.0868   -3.2093    1.0435 C   0  0  0  0  0  0  0  0  0  0  0  0
    5.0989   -2.4960    1.9334 C   0  0  0  0  0  0  0  0  0  0  0  0
    4.4523   -1.3255    1.2106 C   0  0  0  0  0  0  0  0  0  0  0  0
    3.7919   -1.8143   -0.0799 C   0  0  0  0  0  0  0  0  0  0  0  0
    3.0575   -0.7310   -0.7282 N   0  0  0  0  0  0  0  0  0  0  0  0
    3.6710    0.2612   -1.6018 C   0  0  0  0  0  0  0  0  0  0  0  0
    2.5688    1.2519   -1.7874 C   0  0  0  0  0  0  0  0  0  0  0  0
    2.5478    2.4101   -2.5408 C   0  0  0  0  0  0  0  0  0  0  0  0
    1.3744    3.1704   -2.5397 C   0  0  0  0  0  0  0  0  0  0  0  0
    0.2450    2.7732   -1.7924 C   0  0  0  0  0  0  0  0  0  0  0  0
    0.2642    1.6031   -1.0287 C   0  0  0  0  0  0  0  0  0  0  0  0
   -0.8128    1.1412   -0.2532 N   0  0  0  0  0  0  0  0  0  0  0  0
   -2.0439    1.7031   -0.0861 C   0  0  0  0  0  0  0  0  0  0  0  0
   -2.4663    2.7364   -0.5818 O   0  0  0  0  0  0  0  0  0  0  0  0
   -2.7620    0.9075    0.7506 O   0  0  0  0  0  0  0  0  0  0  0  0
   -4.1083    1.3354    1.0457 C   0  0  0  0  0  0  0  0  0  0  0  0
   -5.0266    0.9483   -0.1247 C   0  0  0  0  0  0  0  0  0  0  0  0
   -6.4420    0.6378    0.3407 C   0  0  0  0  0  0  0  0  0  0  0  0
   -6.4680   -0.5433    1.3125 C   0  0  0  0  0  0  0  0  0  0  0  0
   -5.1921   -0.6735    2.1474 C   0  0  0  0  0  0  0  0  0  0  0  0
   -4.5227    0.6785    2.3718 C   0  0  0  0  0  0  0  0  0  0  0  0
    1.4424    0.8682   -1.0561 C   0  0  0  0  0  0  0  0  0  0  0  0
    1.7704   -0.3805   -0.3585 C   0  0  0  0  0  0  0  0  0  0  0  0
    1.0312   -0.9535    0.4209 O   0  0  0  0  0  0  0  0  0  0  0  0
    4.8453   -2.5042   -0.9622 C   0  0  0  0  0  0  0  0  0  0  0  0
    4.8688   -2.4434   -2.1894 O   0  0  0  0  0  0  0  0  0  0  0  0
    5.7844   -3.2565   -0.2938 N   0  0  0  0  0  0  0  0  0  0  0  0
    4.3462   -3.2214    2.2613 H   0  0  0  0  0  0  0  0  0  0  0  0
    5.6292   -2.1289    2.8188 H   0  0  0  0  0  0  0  0  0  0  0  0
    5.2120   -0.5669    0.9815 H   0  0  0  0  0  0  0  0  0  0  0  0
    3.7145   -0.8515    1.8685 H   0  0  0  0  0  0  0  0  0  0  0  0
    3.0534   -2.5862    0.1760 H   0  0  0  0  0  0  0  0  0  0  0  0
    3.9502   -0.1950   -2.5537 H   0  0  0  0  0  0  0  0  0  0  0  0
    4.5314    0.7111   -1.0988 H   0  0  0  0  0  0  0  0  0  0  0  0
    3.4096    2.7261   -3.1206 H   0  0  0  0  0  0  0  0  0  0  0  0
    1.3250    4.0873   -3.1250 H   0  0  0  0  0  0  0  0  0  0  0  0
   -0.6359    3.4085   -1.8326 H   0  0  0  0  0  0  0  0  0  0  0  0
   -0.6738    0.2734    0.2616 H   0  0  0  0  0  0  0  0  0  0  0  0
   -4.1174    2.4221    1.2013 H   0  0  0  0  0  0  0  0  0  0  0  0
   -5.0489    1.7666   -0.8542 H   0  0  0  0  0  0  0  0  0  0  0  0
   -4.6180    0.0818   -0.6610 H   0  0  0  0  0  0  0  0  0  0  0  0
   -6.8630    1.5242    0.8318 H   0  0  0  0  0  0  0  0  0  0  0  0
   -7.0872    0.4218   -0.5184 H   0  0  0  0  0  0  0  0  0  0  0  0
   -6.6219   -1.4775    0.7588 H   0  0  0  0  0  0  0  0  0  0  0  0
   -7.3360   -0.4344    1.9741 H   0  0  0  0  0  0  0  0  0  0  0  0
   -4.4893   -1.3441    1.6370 H   0  0  0  0  0  0  0  0  0  0  0  0
   -5.4294   -1.1440    3.1083 H   0  0  0  0  0  0  0  0  0  0  0  0
   -3.6521    0.5522    3.0259 H   0  0  0  0  0  0  0  0  0  0  0  0
   -5.2301    1.3339    2.8955 H   0  0  0  0  0  0  0  0  0  0  0  0
    6.4776   -3.7053   -0.8776 H   0  0  0  0  0  0  0  0  0  0  0  0
  1  2  2  0
  2  3  1  0
  3  4  1  0
  4  5  1  0
  5  6  1  0
  6  7  1  0
  7  8  1  0
  8  9  2  0
  9 10  1  0
 10 11  2  0
 11 12  1  0
 12 13  1  0
 13 14  1  0
 14 15  2  0
 14 16  1  0
 16 17  1  0
 17 18  1  0
 18 19  1  0
 19 20  1  0
 20 21  1  0
 21 22  1  0
 12 23  2  0
 23 24  1  0
 24 25  2  0
  5 26  1  0
 26 27  2  0
 26 28  1  0
 28  2  1  0
 24  6  1  0
 23  8  1  0
 22 17  1  0
  3 29  1  0
  3 30  1  0
  4 31  1  0
  4 32  1  0
  5 33  1  0
  7 34  1  0
  7 35  1  0
  9 36  1  0
 10 37  1  0
 11 38  1  0
 13 39  1  0
 17 40  1  0
 18 41  1  0
 18 42  1  0
 19 43  1  0
 19 44  1  0
 20 45  1  0
 20 46  1  0
 21 47  1  0
 21 48  1  0
 22 49  1  0
 22 50  1  0
 28 51  1  0
M  END
>  <linker>  (22) 
carbamate

>  <mw>  (22) 
385.42

>  <clogp>  (22) 
2.33

>  <tpsa>  (22) 
104.8

>  <cns_mpo_proxy>  (22) 
3.5

>  <qed>  (22) 
0.777

$$$$
GLUE0123
     RDKit          3D

 44 47  0  0  0  0  0  0  0  0999 V2000
    5.0291    2.8050   -2.6894 O   0  0  0  0  0  0  0  0  0  0  0  0
    4.4764    1.9792   -1.9685 C   0  0  0  0  0  0  0  0  0  0  0  0
    4.4146    0.5123   -2.3247 C   0  0  0  0  0  0  0  0  0  0  0  0
    3.2420   -0.1721   -1.6401 C   0  0  0  0  0  0  0  0  0  0  0  0
    3.3516    0.0264   -0.1287 C   0  0  0  0  0  0  0  0  0  0  0  0
    2.2991   -0.6435    0.6279 N   0  0  0  0  0  0  0  0  0  0  0  0
    2.5499   -1.1887    1.9543 C   0  0  0  0  0  0  0  0  0  0  0  0
    1.1816   -1.5445    2.4280 C   0  0  0  0  0  0  0  0  0  0  0  0
    0.7871   -2.1673    3.5964 C   0  0  0  0  0  0  0  0  0  0  0  0
   -0.5818   -2.3650    3.8020 C   0  0  0  0  0  0  0  0  0  0  0  0
   -1.5348   -1.9397    2.8514 C   0  0  0  0  0  0  0  0  0  0  0  0
   -1.1385   -1.3057    1.6717 C   0  0  0  0  0  0  0  0  0  0  0  0
   -2.0185   -0.8499    0.6687 N   0  0  0  0  0  0  0  0  0  0  0  0
   -3.3943   -0.9260    0.6548 C   0  0  0  0  0  0  0  0  0  0  0  0
   -4.1139   -1.3672    1.5437 O   0  0  0  0  0  0  0  0  0  0  0  0
   -4.0473   -0.3400   -0.5440 C   0  0  0  0  0  0  0  0  0  0  0  0
   -5.1292    0.5250   -0.3106 C   0  0  0  0  0  0  0  0  0  0  0  0
   -5.7952    1.1294   -1.3776 C   0  0  0  0  0  0  0  0  0  0  0  0
   -5.3922    0.8675   -2.6848 C   0  0  0  0  0  0  0  0  0  0  0  0
   -4.3304   -0.0066   -2.9260 C   0  0  0  0  0  0  0  0  0  0  0  0
   -3.6585   -0.6178   -1.8604 C   0  0  0  0  0  0  0  0  0  0  0  0
   -2.4007   -1.7332   -2.2591 Cl  0  0  0  0  0  0  0  0  0  0  0  0
    0.2283   -1.1293    1.4968 C   0  0  0  0  0  0  0  0  0  0  0  0
    0.9434   -0.5020    0.3788 C   0  0  0  0  0  0  0  0  0  0  0  0
    0.3951    0.0443   -0.5610 O   0  0  0  0  0  0  0  0  0  0  0  0
    3.4169    1.5224    0.2155 C   0  0  0  0  0  0  0  0  0  0  0  0
    3.1133    1.9798    1.3166 O   0  0  0  0  0  0  0  0  0  0  0  0
    3.9536    2.3406   -0.7522 N   0  0  0  0  0  0  0  0  0  0  0  0
    5.3639    0.0486   -2.0350 H   0  0  0  0  0  0  0  0  0  0  0  0
    4.3044    0.4240   -3.4108 H   0  0  0  0  0  0  0  0  0  0  0  0
    2.3129    0.2565   -2.0317 H   0  0  0  0  0  0  0  0  0  0  0  0
    3.2350   -1.2404   -1.8854 H   0  0  0  0  0  0  0  0  0  0  0  0
    4.3019   -0.4110    0.2064 H   0  0  0  0  0  0  0  0  0  0  0  0
    3.0017   -0.4227    2.5909 H   0  0  0  0  0  0  0  0  0  0  0  0
    3.1985   -2.0642    1.8631 H   0  0  0  0  0  0  0  0  0  0  0  0
    1.5089   -2.4928    4.3389 H   0  0  0  0  0  0  0  0  0  0  0  0
   -0.9264   -2.8531    4.7121 H   0  0  0  0  0  0  0  0  0  0  0  0
   -2.5832   -2.1226    3.0698 H   0  0  0  0  0  0  0  0  0  0  0  0
   -1.5604   -0.4184   -0.1368 H   0  0  0  0  0  0  0  0  0  0  0  0
   -5.4515    0.7297    0.7093 H   0  0  0  0  0  0  0  0  0  0  0  0
   -6.6291    1.8012   -1.1869 H   0  0  0  0  0  0  0  0  0  0  0  0
   -5.9110    1.3357   -3.5183 H   0  0  0  0  0  0  0  0  0  0  0  0
   -4.0367   -0.2156   -3.9524 H   0  0  0  0  0  0  0  0  0  0  0  0
    4.0247    3.3200   -0.5127 H   0  0  0  0  0  0  0  0  0  0  0  0
  1  2  2  0
  2  3  1  0
  3  4  1  0
  4  5  1  0
  5  6  1  0
  6  7  1  0
  7  8  1  0
  8  9  2  0
  9 10  1  0
 10 11  2  0
 11 12  1  0
 12 13  1  0
 13 14  1  0
 14 15  2  0
 14 16  1  0
 16 17  2  0
 17 18  1  0
 18 19  2  0
 19 20  1  0
 20 21  2  0
 21 22  1  0
 12 23  2  0
 23 24  1  0
 24 25  2  0
  5 26  1  0
 26 27  2  0
 26 28  1  0
 28  2  1  0
 24  6  1  0
 23  8  1  0
 21 16  1  0
  3 29  1  0
  3 30  1  0
  4 31  1  0
  4 32  1  0
  5 33  1  0
  7 34  1  0
  7 35  1  0
  9 36  1  0
 10 37  1  0
 11 38  1  0
 13 39  1  0
 17 40  1  0
 18 41  1  0
 19 42  1  0
 20 43  1  0
 28 44  1  0
M  END
>  <linker>  (23) 
amide

>  <mw>  (23) 
397.82

>  <clogp>  (23) 
2.35

>  <tpsa>  (23) 
95.6

>  <cns_mpo_proxy>  (23) 
3.5

>  <qed>  (23) 
0.777

$$$$
GLUE0335
     RDKit          3D

 44 47  0  0  0  0  0  0  0  0999 V2000
    5.7209    0.3675    2.9350 O   0  0  0  0  0  0  0  0  0  0  0  0
    4.9749    0.2484    1.9674 C   0  0  0  0  0  0  0  0  0  0  0  0
    4.6821    1.3960    1.0296 C   0  0  0  0  0  0  0  0  0  0  0  0
    3.3473    1.2059    0.3263 C   0  0  0  0  0  0  0  0  0  0  0  0
    3.3524   -0.1289   -0.4177 C   0  0  0  0  0  0  0  0  0  0  0  0
    2.1317   -0.3809   -1.1768 N   0  0  0  0  0  0  0  0  0  0  0  0
    2.1605   -1.1228   -2.4300 C   0  0  0  0  0  0  0  0  0  0  0  0
    0.7139   -1.3458   -2.7138 C   0  0  0  0  0  0  0  0  0  0  0  0
    0.1087   -1.9394   -3.8045 C   0  0  0  0  0  0  0  0  0  0  0  0
   -1.2862   -2.0424   -3.8031 C   0  0  0  0  0  0  0  0  0  0  0  0
   -2.0565   -1.5611   -2.7223 C   0  0  0  0  0  0  0  0  0  0  0  0
   -1.4467   -0.9618   -1.6185 C   0  0  0  0  0  0  0  0  0  0  0  0
   -2.1302   -0.4617   -0.4900 N   0  0  0  0  0  0  0  0  0  0  0  0
   -3.4929   -0.4200   -0.2801 C   0  0  0  0  0  0  0  0  0  0  0  0
   -4.3606   -0.7565   -1.0775 O   0  0  0  0  0  0  0  0  0  0  0  0
   -3.9182    0.1243    1.0429 C   0  0  0  0  0  0  0  0  0  0  0  0
   -3.1370   -0.0257    2.1987 C   0  0  0  0  0  0  0  0  0  0  0  0
   -3.5800    0.4972    3.4162 C   0  0  0  0  0  0  0  0  0  0  0  0
   -4.8044    1.1620    3.4861 C   0  0  0  0  0  0  0  0  0  0  0  0
   -5.5874    1.2962    2.3402 C   0  0  0  0  0  0  0  0  0  0  0  0
   -7.1006    2.1101    2.4345 Cl  0  0  0  0  0  0  0  0  0  0  0  0
   -5.1547    0.7782    1.1217 C   0  0  0  0  0  0  0  0  0  0  0  0
   -0.0608   -0.8723   -1.6541 C   0  0  0  0  0  0  0  0  0  0  0  0
    0.8517   -0.3093   -0.6519 C   0  0  0  0  0  0  0  0  0  0  0  0
    0.4919    0.1141    0.4320 O   0  0  0  0  0  0  0  0  0  0  0  0
    3.6521   -1.2835    0.5508 C   0  0  0  0  0  0  0  0  0  0  0  0
    3.3197   -2.4493    0.3415 O   0  0  0  0  0  0  0  0  0  0  0  0
    4.4261   -0.9671    1.6438 N   0  0  0  0  0  0  0  0  0  0  0  0
    4.6575    2.3227    1.6130 H   0  0  0  0  0  0  0  0  0  0  0  0
    5.5015    1.4655    0.3058 H   0  0  0  0  0  0  0  0  0  0  0  0
    2.5505    1.2394    1.0775 H   0  0  0  0  0  0  0  0  0  0  0  0
    3.1697    2.0317   -0.3722 H   0  0  0  0  0  0  0  0  0  0  0  0
    4.1742   -0.1129   -1.1464 H   0  0  0  0  0  0  0  0  0  0  0  0
    2.6861   -2.0712   -2.2871 H   0  0  0  0  0  0  0  0  0  0  0  0
    2.6444   -0.5103   -3.1957 H   0  0  0  0  0  0  0  0  0  0  0  0
    0.6888   -2.3222   -4.6384 H   0  0  0  0  0  0  0  0  0  0  0  0
   -1.7941   -2.5071   -4.6467 H   0  0  0  0  0  0  0  0  0  0  0  0
   -3.1354   -1.6779   -2.7784 H   0  0  0  0  0  0  0  0  0  0  0  0
   -1.5222   -0.0494    0.2175 H   0  0  0  0  0  0  0  0  0  0  0  0
   -2.1934   -0.5662    2.1785 H   0  0  0  0  0  0  0  0  0  0  0  0
   -2.9738    0.3792    4.3116 H   0  0  0  0  0  0  0  0  0  0  0  0
   -5.1459    1.5658    4.4359 H   0  0  0  0  0  0  0  0  0  0  0  0
   -5.7731    0.8825    0.2328 H   0  0  0  0  0  0  0  0  0  0  0  0
    4.6471   -1.7327    2.2658 H   0  0  0  0  0  0  0  0  0  0  0  0
  1  2  2  0
  2  3  1  0
  3  4  1  0
  4  5  1  0
  5  6  1  0
  6  7  1  0
  7  8  1  0
  8  9  2  0
  9 10  1  0
 10 11  2  0
 11 12  1  0
 12 13  1  0
 13 14  1  0
 14 15  2  0
 14 16  1  0
 16 17  2  0
 17 18  1  0
 18 19  2  0
 19 20  1  0
 20 21  1  0
 20 22  2  0
 12 23  2  0
 23 24  1  0
 24 25  2  0
  5 26  1  0
 26 27  2  0
 26 28  1  0
 28  2  1  0
 24  6  1  0
 23  8  1  0
 22 16  1  0
  3 29  1  0
  3 30  1  0
  4 31  1  0
  4 32  1  0
  5 33  1  0
  7 34  1  0
  7 35  1  0
  9 36  1  0
 10 37  1  0
 11 38  1  0
 13 39  1  0
 17 40  1  0
 18 41  1  0
 19 42  1  0
 22 43  1  0
 28 44  1  0
M  END
>  <linker>  (24) 
amide

>  <mw>  (24) 
397.82

>  <clogp>  (24) 
2.35

>  <tpsa>  (24) 
95.6

>  <cns_mpo_proxy>  (24) 
3.5

>  <qed>  (24) 
0.777

$$$$
GLUE1189
     RDKit          3D

 53 55  0  0  0  0  0  0  0  0999 V2000
   -4.8666   -0.4266    1.9118 C   0  0  0  0  0  0  0  0  0  0  0  0
   -4.3985    0.4274    0.7317 C   0  0  0  0  0  0  0  0  0  0  0  0
   -2.9786    0.2100    0.5630 O   0  0  0  0  0  0  0  0  0  0  0  0
   -2.1428    0.9765    1.3119 C   0  0  0  0  0  0  0  0  0  0  0  0
   -2.5155    1.8161    2.1169 O   0  0  0  0  0  0  0  0  0  0  0  0
   -0.8607    0.6329    1.0005 N   0  0  0  0  0  0  0  0  0  0  0  0
    0.3378    1.1583    1.5122 C   0  0  0  0  0  0  0  0  0  0  0  0
    0.4118    2.1746    2.4683 C   0  0  0  0  0  0  0  0  0  0  0  0
    1.6592    2.6507    2.9255 C   0  0  0  0  0  0  0  0  0  0  0  0
    2.8594    2.1237    2.4391 C   0  0  0  0  0  0  0  0  0  0  0  0
    2.7882    1.1159    1.4962 C   0  0  0  0  0  0  0  0  0  0  0  0
    1.5476    0.6534    1.0534 C   0  0  0  0  0  0  0  0  0  0  0  0
    1.7944   -0.4042    0.0663 C   0  0  0  0  0  0  0  0  0  0  0  0
    0.9199   -0.9952   -0.5404 O   0  0  0  0  0  0  0  0  0  0  0  0
    3.1683   -0.5812   -0.0138 N   0  0  0  0  0  0  0  0  0  0  0  0
    3.7892   -1.3901   -1.0616 C   0  0  0  0  0  0  0  0  0  0  0  0
    4.7755   -2.4265   -0.5215 C   0  0  0  0  0  0  0  0  0  0  0  0
    6.1897   -1.8821   -0.4204 C   0  0  0  0  0  0  0  0  0  0  0  0
    6.6424   -1.2659   -1.7214 C   0  0  0  0  0  0  0  0  0  0  0  0
    7.8265   -1.0497   -1.9619 O   0  0  0  0  0  0  0  0  0  0  0  0
    5.6617   -0.8474   -2.5789 N   0  0  0  0  0  0  0  0  0  0  0  0
    4.4037   -0.5020   -2.1575 C   0  0  0  0  0  0  0  0  0  0  0  0
    3.8461    0.4889   -2.6241 O   0  0  0  0  0  0  0  0  0  0  0  0
    3.8887    0.3842    0.8043 C   0  0  0  0  0  0  0  0  0  0  0  0
   -5.1093    0.1114   -0.6229 C   0  0  0  0  0  0  0  0  0  0  0  0
   -6.6251    0.3595   -0.5164 C   0  0  0  0  0  0  0  0  0  0  0  0
   -4.5453    1.0459   -1.7159 C   0  0  0  0  0  0  0  0  0  0  0  0
   -4.8723   -1.3426   -1.0734 C   0  0  0  0  0  0  0  0  0  0  0  0
   -5.9367   -0.3135    2.1023 H   0  0  0  0  0  0  0  0  0  0  0  0
   -4.6407   -1.4860    1.7548 H   0  0  0  0  0  0  0  0  0  0  0  0
   -4.3361   -0.1381    2.8259 H   0  0  0  0  0  0  0  0  0  0  0  0
   -4.5850    1.4837    0.9685 H   0  0  0  0  0  0  0  0  0  0  0  0
   -0.7805   -0.0976    0.2947 H   0  0  0  0  0  0  0  0  0  0  0  0
   -0.4849    2.6280    2.8826 H   0  0  0  0  0  0  0  0  0  0  0  0
    1.6806    3.4462    3.6686 H   0  0  0  0  0  0  0  0  0  0  0  0
    3.8121    2.5031    2.7954 H   0  0  0  0  0  0  0  0  0  0  0  0
    2.9836   -1.9469   -1.5580 H   0  0  0  0  0  0  0  0  0  0  0  0
    4.4471   -2.8155    0.4492 H   0  0  0  0  0  0  0  0  0  0  0  0
    4.7909   -3.2797   -1.2135 H   0  0  0  0  0  0  0  0  0  0  0  0
    6.8753   -2.6994   -0.1713 H   0  0  0  0  0  0  0  0  0  0  0  0
    6.2715   -1.1217    0.3613 H   0  0  0  0  0  0  0  0  0  0  0  0
    6.0203   -0.2613   -3.3226 H   0  0  0  0  0  0  0  0  0  0  0  0
    4.4701    1.0561    0.1674 H   0  0  0  0  0  0  0  0  0  0  0  0
    4.5242   -0.1487    1.5157 H   0  0  0  0  0  0  0  0  0  0  0  0
   -7.1125    0.2479   -1.4919 H   0  0  0  0  0  0  0  0  0  0  0  0
   -6.8348    1.3725   -0.1554 H   0  0  0  0  0  0  0  0  0  0  0  0
   -7.1066   -0.3492    0.1649 H   0  0  0  0  0  0  0  0  0  0  0  0
   -3.4762    0.8748   -1.8831 H   0  0  0  0  0  0  0  0  0  0  0  0
   -4.6776    2.0983   -1.4403 H   0  0  0  0  0  0  0  0  0  0  0  0
   -5.0545    0.8881   -2.6736 H   0  0  0  0  0  0  0  0  0  0  0  0
   -5.3135   -2.0595   -0.3734 H   0  0  0  0  0  0  0  0  0  0  0  0
   -3.8043   -1.5693   -1.1605 H   0  0  0  0  0  0  0  0  0  0  0  0
   -5.3274   -1.5281   -2.0534 H   0  0  0  0  0  0  0  0  0  0  0  0
  1  2  1  0
  2  3  1  0
  3  4  1  0
  4  5  2  0
  4  6  1  0
  6  7  1  0
  7  8  1  0
  8  9  2  0
  9 10  1  0
 10 11  2  0
 11 12  1  0
 12 13  1  0
 13 14  2  0
 13 15  1  0
 15 16  1  0
 16 17  1  0
 17 18  1  0
 18 19  1  0
 19 20  2  0
 19 21  1  0
 21 22  1  0
 22 23  2  0
 15 24  1  0
  2 25  1  0
 25 26  1  0
 25 27  1  0
 25 28  1  0
 12  7  2  0
 22 16  1  0
 24 11  1  0
  1 29  1  0
  1 30  1  0
  1 31  1  0
  2 32  1  0
  6 33  1  0
  8 34  1  0
  9 35  1  0
 10 36  1  0
 16 37  1  0
 17 38  1  0
 17 39  1  0
 18 40  1  0
 18 41  1  0
 21 42  1  0
 24 43  1  0
 24 44  1  0
 26 45  1  0
 26 46  1  0
 26 47  1  0
 27 48  1  0
 27 49  1  0
 27 50  1  0
 28 51  1  0
 28 52  1  0
 28 53  1  0
M  END
>  <linker>  (25) 
carbamate

>  <mw>  (25) 
387.44

>  <clogp>  (25) 
2.43

>  <tpsa>  (25) 
104.8

>  <cns_mpo_proxy>  (25) 
3.5

>  <qed>  (25) 
0.775

$$$$
GLUE0058
     RDKit          3D

 45 48  0  0  0  0  0  0  0  0999 V2000
   -7.4272    2.1286   -0.2836 O   0  0  0  0  0  0  0  0  0  0  0  0
   -6.2626    1.8188   -0.0525 C   0  0  0  0  0  0  0  0  0  0  0  0
   -5.6917    1.8046    1.3464 C   0  0  0  0  0  0  0  0  0  0  0  0
   -4.6862    0.6760    1.5178 C   0  0  0  0  0  0  0  0  0  0  0  0
   -3.5949    0.8046    0.4594 C   0  0  0  0  0  0  0  0  0  0  0  0
   -2.5480   -0.1994    0.6113 N   0  0  0  0  0  0  0  0  0  0  0  0
   -2.8082   -1.6332    0.6353 C   0  0  0  0  0  0  0  0  0  0  0  0
   -1.4404   -2.2148    0.5016 C   0  0  0  0  0  0  0  0  0  0  0  0
   -1.0394   -3.5368    0.5223 C   0  0  0  0  0  0  0  0  0  0  0  0
    0.3217   -3.8105    0.3541 C   0  0  0  0  0  0  0  0  0  0  0  0
    1.2602   -2.7735    0.1631 C   0  0  0  0  0  0  0  0  0  0  0  0
    0.8562   -1.4364    0.1369 C   0  0  0  0  0  0  0  0  0  0  0  0
    1.7197   -0.3434   -0.0558 N   0  0  0  0  0  0  0  0  0  0  0  0
    3.0756   -0.3502   -0.2429 C   0  0  0  0  0  0  0  0  0  0  0  0
    3.8087   -1.3295   -0.2667 O   0  0  0  0  0  0  0  0  0  0  0  0
    3.4994    0.9648   -0.4026 O   0  0  0  0  0  0  0  0  0  0  0  0
    4.8748    1.0915   -0.6089 C   0  0  0  0  0  0  0  0  0  0  0  0
    5.3728    1.0718   -1.9124 C   0  0  0  0  0  0  0  0  0  0  0  0
    6.7410    1.2442   -2.1165 C   0  0  0  0  0  0  0  0  0  0  0  0
    7.5787    1.4451   -1.0218 C   0  0  0  0  0  0  0  0  0  0  0  0
    8.8926    1.6132   -1.2219 F   0  0  0  0  0  0  0  0  0  0  0  0
    7.0752    1.4818    0.2766 C   0  0  0  0  0  0  0  0  0  0  0  0
    5.7081    1.3101    0.4887 C   0  0  0  0  0  0  0  0  0  0  0  0
   -0.5008   -1.1993    0.3139 C   0  0  0  0  0  0  0  0  0  0  0  0
   -1.2180    0.0804    0.3401 C   0  0  0  0  0  0  0  0  0  0  0  0
   -0.6967    1.1653    0.1553 O   0  0  0  0  0  0  0  0  0  0  0  0
   -4.2416    0.7591   -0.9357 C   0  0  0  0  0  0  0  0  0  0  0  0
   -3.7896    0.1300   -1.8895 O   0  0  0  0  0  0  0  0  0  0  0  0
   -5.4040    1.4839   -1.0686 N   0  0  0  0  0  0  0  0  0  0  0  0
   -6.5137    1.6714    2.0580 H   0  0  0  0  0  0  0  0  0  0  0  0
   -5.2288    2.7789    1.5380 H   0  0  0  0  0  0  0  0  0  0  0  0
   -4.2516    0.7135    2.5233 H   0  0  0  0  0  0  0  0  0  0  0  0
   -5.2018   -0.2884    1.4225 H   0  0  0  0  0  0  0  0  0  0  0  0
   -3.1208    1.7915    0.5425 H   0  0  0  0  0  0  0  0  0  0  0  0
   -3.2742   -1.8987    1.5879 H   0  0  0  0  0  0  0  0  0  0  0  0
   -3.4402   -1.9164   -0.2105 H   0  0  0  0  0  0  0  0  0  0  0  0
   -1.7512   -4.3448    0.6600 H   0  0  0  0  0  0  0  0  0  0  0  0
    0.6698   -4.8422    0.3646 H   0  0  0  0  0  0  0  0  0  0  0  0
    2.3022   -3.0541    0.0335 H   0  0  0  0  0  0  0  0  0  0  0  0
    1.2890    0.5804   -0.0695 H   0  0  0  0  0  0  0  0  0  0  0  0
    4.7069    0.9183   -2.7560 H   0  0  0  0  0  0  0  0  0  0  0  0
    7.1601    1.2242   -3.1172 H   0  0  0  0  0  0  0  0  0  0  0  0
    7.7506    1.6442    1.1101 H   0  0  0  0  0  0  0  0  0  0  0  0
    5.3003    1.3405    1.4943 H   0  0  0  0  0  0  0  0  0  0  0  0
   -5.8322    1.4351   -1.9840 H   0  0  0  0  0  0  0  0  0  0  0  0
  1  2  2  0
  2  3  1  0
  3  4  1  0
  4  5  1  0
  5  6  1  0
  6  7  1  0
  7  8  1  0
  8  9  2  0
  9 10  1  0
 10 11  2  0
 11 12  1  0
 12 13  1  0
 13 14  1  0
 14 15  2  0
 14 16  1  0
 16 17  1  0
 17 18  1  0
 18 19  2  0
 19 20  1  0
 20 21  1  0
 20 22  2  0
 22 23  1  0
 12 24  2  0
 24 25  1  0
 25 26  2  0
  5 27  1  0
 27 28  2  0
 27 29  1  0
 29  2  1  0
 25  6  1  0
 24  8  1  0
 23 17  2  0
  3 30  1  0
  3 31  1  0
  4 32  1  0
  4 33  1  0
  5 34  1  0
  7 35  1  0
  7 36  1  0
  9 37  1  0
 10 38  1  0
 11 39  1  0
 13 40  1  0
 18 41  1  0
 19 42  1  0
 22 43  1  0
 23 44  1  0
 29 45  1  0
M  END
>  <linker>  (26) 
carbamate

>  <mw>  (26) 
397.36

>  <clogp>  (26) 
2.2

>  <tpsa>  (26) 
104.8

>  <cns_mpo_proxy>  (26) 
3.5

>  <qed>  (26) 
0.773

$$$$
GLUE0409
     RDKit          3D

 45 48  0  0  0  0  0  0  0  0999 V2000
   -7.4822   -0.2878    1.1805 O   0  0  0  0  0  0  0  0  0  0  0  0
   -6.3399    0.1614    1.1798 C   0  0  0  0  0  0  0  0  0  0  0  0
   -5.8147    1.0103    0.0480 C   0  0  0  0  0  0  0  0  0  0  0  0
   -4.5680    1.7763    0.4552 C   0  0  0  0  0  0  0  0  0  0  0  0
   -3.4975    0.8679    1.0613 C   0  0  0  0  0  0  0  0  0  0  0  0
   -2.5711    0.3221    0.0703 N   0  0  0  0  0  0  0  0  0  0  0  0
   -2.9550   -0.6241   -0.9683 C   0  0  0  0  0  0  0  0  0  0  0  0
   -1.6386   -1.0763   -1.5050 C   0  0  0  0  0  0  0  0  0  0  0  0
   -1.3623   -1.9446   -2.5437 C   0  0  0  0  0  0  0  0  0  0  0  0
   -0.0207   -2.2096   -2.8358 C   0  0  0  0  0  0  0  0  0  0  0  0
    1.0226   -1.6152   -2.0936 C   0  0  0  0  0  0  0  0  0  0  0  0
    0.7452   -0.7402   -1.0406 C   0  0  0  0  0  0  0  0  0  0  0  0
    1.7195   -0.1117   -0.2449 N   0  0  0  0  0  0  0  0  0  0  0  0
    3.0821   -0.2075   -0.3305 C   0  0  0  0  0  0  0  0  0  0  0  0
    3.7228   -0.8621   -1.1418 O   0  0  0  0  0  0  0  0  0  0  0  0
    3.6382    0.5789    0.6730 O   0  0  0  0  0  0  0  0  0  0  0  0
    5.0350    0.5678    0.6917 C   0  0  0  0  0  0  0  0  0  0  0  0
    5.7413    1.4552   -0.1224 C   0  0  0  0  0  0  0  0  0  0  0  0
    7.1355    1.4718   -0.0662 C   0  0  0  0  0  0  0  0  0  0  0  0
    7.8050    0.6149    0.8096 C   0  0  0  0  0  0  0  0  0  0  0  0
    7.0764   -0.2488    1.6249 C   0  0  0  0  0  0  0  0  0  0  0  0
    7.7273   -1.0596    2.4698 F   0  0  0  0  0  0  0  0  0  0  0  0
    5.6888   -0.2788    1.5818 C   0  0  0  0  0  0  0  0  0  0  0  0
   -0.5970   -0.4943   -0.7810 C   0  0  0  0  0  0  0  0  0  0  0  0
   -1.1954    0.3687    0.2433 C   0  0  0  0  0  0  0  0  0  0  0  0
   -0.5549    0.9963    1.0670 O   0  0  0  0  0  0  0  0  0  0  0  0
   -4.0941   -0.2504    1.9338 C   0  0  0  0  0  0  0  0  0  0  0  0
   -3.4357   -1.1821    2.3908 O   0  0  0  0  0  0  0  0  0  0  0  0
   -5.4455   -0.1868    2.1548 N   0  0  0  0  0  0  0  0  0  0  0  0
   -6.5978    1.7202   -0.2400 H   0  0  0  0  0  0  0  0  0  0  0  0
   -5.6213    0.3550   -0.8059 H   0  0  0  0  0  0  0  0  0  0  0  0
   -4.1714    2.3391   -0.3977 H   0  0  0  0  0  0  0  0  0  0  0  0
   -4.8593    2.5169    1.2127 H   0  0  0  0  0  0  0  0  0  0  0  0
   -2.9056    1.4872    1.7480 H   0  0  0  0  0  0  0  0  0  0  0  0
   -3.5420   -0.1050   -1.7298 H   0  0  0  0  0  0  0  0  0  0  0  0
   -3.5094   -1.4580   -0.5292 H   0  0  0  0  0  0  0  0  0  0  0  0
   -2.1543   -2.4142   -3.1189 H   0  0  0  0  0  0  0  0  0  0  0  0
    0.2306   -2.8905   -3.6475 H   0  0  0  0  0  0  0  0  0  0  0  0
    2.0437   -1.8671   -2.3681 H   0  0  0  0  0  0  0  0  0  0  0  0
    1.3773    0.4897    0.5040 H   0  0  0  0  0  0  0  0  0  0  0  0
    5.2131    2.1211   -0.7985 H   0  0  0  0  0  0  0  0  0  0  0  0
    7.6986    2.1497   -0.7024 H   0  0  0  0  0  0  0  0  0  0  0  0
    8.8891    0.6155    0.8646 H   0  0  0  0  0  0  0  0  0  0  0  0
    5.1385   -0.9527    2.2277 H   0  0  0  0  0  0  0  0  0  0  0  0
   -5.7969   -0.9186    2.7601 H   0  0  0  0  0  0  0  0  0  0  0  0
  1  2  2  0
  2  3  1  0
  3  4  1  0
  4  5  1  0
  5  6  1  0
  6  7  1  0
  7  8  1  0
  8  9  2  0
  9 10  1  0
 10 11  2  0
 11 12  1  0
 12 13  1  0
 13 14  1  0
 14 15  2  0
 14 16  1  0
 16 17  1  0
 17 18  2  0
 18 19  1  0
 19 20  2  0
 20 21  1  0
 21 22  1  0
 21 23  2  0
 12 24  2  0
 24 25  1  0
 25 26  2  0
  5 27  1  0
 27 28  2  0
 27 29  1  0
 29  2  1  0
 25  6  1  0
 24  8  1  0
 23 17  1  0
  3 30  1  0
  3 31  1  0
  4 32  1  0
  4 33  1  0
  5 34  1  0
  7 35  1  0
  7 36  1  0
  9 37  1  0
 10 38  1  0
 11 39  1  0
 13 40  1  0
 18 41  1  0
 19 42  1  0
 20 43  1  0
 23 44  1  0
 29 45  1  0
M  END
>  <linker>  (27) 
carbamate

>  <mw>  (27) 
397.36

>  <clogp>  (27) 
2.2

>  <tpsa>  (27) 
104.8

>  <cns_mpo_proxy>  (27) 
3.5

>  <qed>  (27) 
0.773

$$$$
GLUE0454
     RDKit          3D

 45 48  0  0  0  0  0  0  0  0999 V2000
   -5.6968   -1.8716    3.7848 O   0  0  0  0  0  0  0  0  0  0  0  0
   -5.1116   -1.4664    2.7844 C   0  0  0  0  0  0  0  0  0  0  0  0
   -5.1573   -0.0180    2.3566 C   0  0  0  0  0  0  0  0  0  0  0  0
   -3.9570    0.3407    1.4946 C   0  0  0  0  0  0  0  0  0  0  0  0
   -3.9048   -0.5932    0.2861 C   0  0  0  0  0  0  0  0  0  0  0  0
   -2.8182   -0.2930   -0.6408 N   0  0  0  0  0  0  0  0  0  0  0  0
   -2.9644   -0.5098   -2.0731 C   0  0  0  0  0  0  0  0  0  0  0  0
   -1.5760   -0.3104   -2.5791 C   0  0  0  0  0  0  0  0  0  0  0  0
   -1.1010   -0.3176   -3.8765 C   0  0  0  0  0  0  0  0  0  0  0  0
    0.2695   -0.1211   -4.0724 C   0  0  0  0  0  0  0  0  0  0  0  0
    1.1455    0.0722   -2.9826 C   0  0  0  0  0  0  0  0  0  0  0  0
    0.6678    0.0740   -1.6698 C   0  0  0  0  0  0  0  0  0  0  0  0
    1.4688    0.2524   -0.5281 N   0  0  0  0  0  0  0  0  0  0  0  0
    2.8202    0.4584   -0.4573 C   0  0  0  0  0  0  0  0  0  0  0  0
    3.6041    0.5201   -1.3950 O   0  0  0  0  0  0  0  0  0  0  0  0
    3.1730    0.5691    0.8828 O   0  0  0  0  0  0  0  0  0  0  0  0
    4.5202    0.8792    1.0754 C   0  0  0  0  0  0  0  0  0  0  0  0
    5.3823   -0.1220    1.5178 C   0  0  0  0  0  0  0  0  0  0  0  0
    6.7231    0.1899    1.7510 C   0  0  0  0  0  0  0  0  0  0  0  0
    7.1873    1.4948    1.5539 C   0  0  0  0  0  0  0  0  0  0  0  0
    6.3103    2.4951    1.1278 C   0  0  0  0  0  0  0  0  0  0  0  0
    4.9754    2.1834    0.8958 C   0  0  0  0  0  0  0  0  0  0  0  0
    4.1302    3.1499    0.5103 F   0  0  0  0  0  0  0  0  0  0  0  0
   -0.6989   -0.1160   -1.5108 C   0  0  0  0  0  0  0  0  0  0  0  0
   -1.4886   -0.1608   -0.2743 C   0  0  0  0  0  0  0  0  0  0  0  0
   -1.0081   -0.1017    0.8426 O   0  0  0  0  0  0  0  0  0  0  0  0
   -3.8578   -2.0600    0.7409 C   0  0  0  0  0  0  0  0  0  0  0  0
   -3.4193   -2.9735    0.0429 O   0  0  0  0  0  0  0  0  0  0  0  0
   -4.4487   -2.3341    1.9532 N   0  0  0  0  0  0  0  0  0  0  0  0
   -6.0944    0.1500    1.8147 H   0  0  0  0  0  0  0  0  0  0  0  0
   -5.1608    0.6085    3.2550 H   0  0  0  0  0  0  0  0  0  0  0  0
   -4.0274    1.3846    1.1681 H   0  0  0  0  0  0  0  0  0  0  0  0
   -3.0518    0.2520    2.1054 H   0  0  0  0  0  0  0  0  0  0  0  0
   -4.8384   -0.4735   -0.2803 H   0  0  0  0  0  0  0  0  0  0  0  0
   -3.6632    0.2285   -2.4758 H   0  0  0  0  0  0  0  0  0  0  0  0
   -3.3105   -1.5302   -2.2606 H   0  0  0  0  0  0  0  0  0  0  0  0
   -1.7623   -0.4733   -4.7231 H   0  0  0  0  0  0  0  0  0  0  0  0
    0.6755   -0.1204   -5.0826 H   0  0  0  0  0  0  0  0  0  0  0  0
    2.2001    0.2165   -3.2025 H   0  0  0  0  0  0  0  0  0  0  0  0
    0.9922    0.2259    0.3723 H   0  0  0  0  0  0  0  0  0  0  0  0
    5.0188   -1.1334    1.6726 H   0  0  0  0  0  0  0  0  0  0  0  0
    7.4086   -0.5845    2.0872 H   0  0  0  0  0  0  0  0  0  0  0  0
    8.2329    1.7319    1.7354 H   0  0  0  0  0  0  0  0  0  0  0  0
    6.6581    3.5119    0.9776 H   0  0  0  0  0  0  0  0  0  0  0  0
   -4.4463   -3.3043    2.2362 H   0  0  0  0  0  0  0  0  0  0  0  0
  1  2  2  0
  2  3  1  0
  3  4  1  0
  4  5  1  0
  5  6  1  0
  6  7  1  0
  7  8  1  0
  8  9  2  0
  9 10  1  0
 10 11  2  0
 11 12  1  0
 12 13  1  0
 13 14  1  0
 14 15  2  0
 14 16  1  0
 16 17  1  0
 17 18  2  0
 18 19  1  0
 19 20  2  0
 20 21  1  0
 21 22  2  0
 22 23  1  0
 12 24  2  0
 24 25  1  0
 25 26  2  0
  5 27  1  0
 27 28  2  0
 27 29  1  0
 29  2  1  0
 25  6  1  0
 24  8  1  0
 22 17  1  0
  3 30  1  0
  3 31  1  0
  4 32  1  0
  4 33  1  0
  5 34  1  0
  7 35  1  0
  7 36  1  0
  9 37  1  0
 10 38  1  0
 11 39  1  0
 13 40  1  0
 18 41  1  0
 19 42  1  0
 20 43  1  0
 21 44  1  0
 29 45  1  0
M  END
>  <linker>  (28) 
carbamate

>  <mw>  (28) 
397.36

>  <clogp>  (28) 
2.2

>  <tpsa>  (28) 
104.8

>  <cns_mpo_proxy>  (28) 
3.5

>  <qed>  (28) 
0.773

$$$$
GLUE0200
     RDKit          3D

 50 52  0  0  0  0  0  0  0  0999 V2000
   -6.1263   -1.3984    1.2713 C   0  0  0  0  0  0  0  0  0  0  0  0
   -5.1438   -1.2268    0.1221 C   0  0  0  0  0  0  0  0  0  0  0  0
   -5.3181    0.1340   -0.5599 C   0  0  0  0  0  0  0  0  0  0  0  0
   -4.3157    0.4072   -1.6938 C   0  0  0  0  0  0  0  0  0  0  0  0
   -4.4813   -0.5574   -2.8641 C   0  0  0  0  0  0  0  0  0  0  0  0
   -2.9625    0.2692   -1.2204 O   0  0  0  0  0  0  0  0  0  0  0  0
   -2.4336    1.3403   -0.5715 C   0  0  0  0  0  0  0  0  0  0  0  0
   -3.0254    2.3923   -0.3854 O   0  0  0  0  0  0  0  0  0  0  0  0
   -1.1660    1.0183   -0.1857 N   0  0  0  0  0  0  0  0  0  0  0  0
   -0.2360    1.8045    0.5155 C   0  0  0  0  0  0  0  0  0  0  0  0
   -0.4728    3.1114    0.9500 C   0  0  0  0  0  0  0  0  0  0  0  0
    0.5195    3.8360    1.6444 C   0  0  0  0  0  0  0  0  0  0  0  0
    1.7696    3.2737    1.9196 C   0  0  0  0  0  0  0  0  0  0  0  0
    2.0057    1.9810    1.4921 C   0  0  0  0  0  0  0  0  0  0  0  0
    1.0132    1.2737    0.8097 C   0  0  0  0  0  0  0  0  0  0  0  0
    1.5576   -0.0486    0.4803 C   0  0  0  0  0  0  0  0  0  0  0  0
    0.9752   -0.8944   -0.1737 O   0  0  0  0  0  0  0  0  0  0  0  0
    2.8332   -0.1115    1.0138 N   0  0  0  0  0  0  0  0  0  0  0  0
    3.7540   -1.2060    0.7177 C   0  0  0  0  0  0  0  0  0  0  0  0
    4.4808   -0.9603   -0.6058 C   0  0  0  0  0  0  0  0  0  0  0  0
    5.3330   -2.1690   -0.9573 C   0  0  0  0  0  0  0  0  0  0  0  0
    6.3017   -2.4959    0.1524 C   0  0  0  0  0  0  0  0  0  0  0  0
    7.4093   -2.9792   -0.0613 O   0  0  0  0  0  0  0  0  0  0  0  0
    5.8712   -2.2556    1.4326 N   0  0  0  0  0  0  0  0  0  0  0  0
    4.7855   -1.5028    1.8186 C   0  0  0  0  0  0  0  0  0  0  0  0
    4.6749   -1.1407    2.9877 O   0  0  0  0  0  0  0  0  0  0  0  0
    3.2319    1.1415    1.6423 C   0  0  0  0  0  0  0  0  0  0  0  0
   -5.9748   -0.6293    2.0354 H   0  0  0  0  0  0  0  0  0  0  0  0
   -5.9903   -2.3767    1.7429 H   0  0  0  0  0  0  0  0  0  0  0  0
   -7.1598   -1.3327    0.9167 H   0  0  0  0  0  0  0  0  0  0  0  0
   -5.3035   -2.0362   -0.5979 H   0  0  0  0  0  0  0  0  0  0  0  0
   -4.1241   -1.3297    0.5096 H   0  0  0  0  0  0  0  0  0  0  0  0
   -6.3391    0.2213   -0.9513 H   0  0  0  0  0  0  0  0  0  0  0  0
   -5.2057    0.9132    0.2040 H   0  0  0  0  0  0  0  0  0  0  0  0
   -4.4755    1.4220   -2.0802 H   0  0  0  0  0  0  0  0  0  0  0  0
   -3.8078   -0.2736   -3.6806 H   0  0  0  0  0  0  0  0  0  0  0  0
   -4.2089   -1.5808   -2.5868 H   0  0  0  0  0  0  0  0  0  0  0  0
   -5.5069   -0.5511   -3.2449 H   0  0  0  0  0  0  0  0  0  0  0  0
   -0.8723    0.0794   -0.4499 H   0  0  0  0  0  0  0  0  0  0  0  0
   -1.4233    3.6055    0.7664 H   0  0  0  0  0  0  0  0  0  0  0  0
    0.3014    4.8520    1.9698 H   0  0  0  0  0  0  0  0  0  0  0  0
    2.5242    3.8413    2.4555 H   0  0  0  0  0  0  0  0  0  0  0  0
    3.1428   -2.1133    0.6177 H   0  0  0  0  0  0  0  0  0  0  0  0
    5.1173   -0.0694   -0.5268 H   0  0  0  0  0  0  0  0  0  0  0  0
    3.7635   -0.7710   -1.4130 H   0  0  0  0  0  0  0  0  0  0  0  0
    5.9043   -1.9590   -1.8680 H   0  0  0  0  0  0  0  0  0  0  0  0
    4.7098   -3.0513   -1.1398 H   0  0  0  0  0  0  0  0  0  0  0  0
    6.5491   -2.4454    2.1589 H   0  0  0  0  0  0  0  0  0  0  0  0
    3.4661    0.9777    2.6960 H   0  0  0  0  0  0  0  0  0  0  0  0
    4.0785    1.5711    1.0998 H   0  0  0  0  0  0  0  0  0  0  0  0
  1  2  1  0
  2  3  1  0
  3  4  1  0
  4  5  1  0
  4  6  1  0
  6  7  1  0
  7  8  2  0
  7  9  1  0
  9 10  1  0
 10 11  1  0
 11 12  2  0
 12 13  1  0
 13 14  2  0
 14 15  1  0
 15 16  1  0
 16 17  2  0
 16 18  1  0
 18 19  1  0
 19 20  1  0
 20 21  1  0
 21 22  1  0
 22 23  2  0
 22 24  1  0
 24 25  1  0
 25 26  2  0
 18 27  1  0
 15 10  2  0
 25 19  1  0
 27 14  1  0
  1 28  1  0
  1 29  1  0
  1 30  1  0
  2 31  1  0
  2 32  1  0
  3 33  1  0
  3 34  1  0
  4 35  1  0
  5 36  1  0
  5 37  1  0
  5 38  1  0
  9 39  1  0
 11 40  1  0
 12 41  1  0
 13 42  1  0
 19 43  1  0
 20 44  1  0
 20 45  1  0
 21 46  1  0
 21 47  1  0
 24 48  1  0
 27 49  1  0
 27 50  1  0
M  END
>  <linker>  (29) 
carbamate

>  <mw>  (29) 
373.41

>  <clogp>  (29) 
2.18

>  <tpsa>  (29) 
104.8

>  <cns_mpo_proxy>  (29) 
3.5

>  <qed>  (29) 
0.77

$$$$
GLUE1204
     RDKit          3D

 50 52  0  0  0  0  0  0  0  0999 V2000
   -6.6186    0.2624    0.5766 C   0  0  0  0  0  0  0  0  0  0  0  0
   -5.1096    0.3939    0.6718 C   0  0  0  0  0  0  0  0  0  0  0  0
   -4.3350   -0.1469   -0.5426 C   0  0  0  0  0  0  0  0  0  0  0  0
   -4.6140    0.6166   -1.8484 C   0  0  0  0  0  0  0  0  0  0  0  0
   -5.7185   -0.0036   -2.6924 C   0  0  0  0  0  0  0  0  0  0  0  0
   -2.9227    0.0353   -0.2695 O   0  0  0  0  0  0  0  0  0  0  0  0
   -2.3045   -0.9441    0.4433 C   0  0  0  0  0  0  0  0  0  0  0  0
   -2.8631   -1.9462    0.8626 O   0  0  0  0  0  0  0  0  0  0  0  0
   -0.9930   -0.5992    0.5889 N   0  0  0  0  0  0  0  0  0  0  0  0
    0.0282   -1.2956    1.2582 C   0  0  0  0  0  0  0  0  0  0  0  0
   -0.1496   -2.5086    1.9291 C   0  0  0  0  0  0  0  0  0  0  0  0
    0.9289   -3.1389    2.5858 C   0  0  0  0  0  0  0  0  0  0  0  0
    2.2077   -2.5729    2.5874 C   0  0  0  0  0  0  0  0  0  0  0  0
    2.3860   -1.3767    1.9188 C   0  0  0  0  0  0  0  0  0  0  0  0
    1.3115   -0.7647    1.2727 C   0  0  0  0  0  0  0  0  0  0  0  0
    1.8105    0.4712    0.6587 C   0  0  0  0  0  0  0  0  0  0  0  0
    1.1055    1.2832    0.0880 O   0  0  0  0  0  0  0  0  0  0  0  0
    3.1834    0.5129    0.8636 N   0  0  0  0  0  0  0  0  0  0  0  0
    3.9922    1.7027    0.5733 C   0  0  0  0  0  0  0  0  0  0  0  0
    3.9670    2.0976   -0.9092 C   0  0  0  0  0  0  0  0  0  0  0  0
    4.6893    1.0535   -1.7479 C   0  0  0  0  0  0  0  0  0  0  0  0
    6.1024    0.8494   -1.2593 C   0  0  0  0  0  0  0  0  0  0  0  0
    6.9737    0.3362   -1.9563 O   0  0  0  0  0  0  0  0  0  0  0  0
    6.3655    1.2099    0.0382 N   0  0  0  0  0  0  0  0  0  0  0  0
    5.4568    1.5453    1.0143 C   0  0  0  0  0  0  0  0  0  0  0  0
    5.8024    1.5719    2.1958 O   0  0  0  0  0  0  0  0  0  0  0  0
    3.6139   -0.5411    1.7781 C   0  0  0  0  0  0  0  0  0  0  0  0
   -6.9113   -0.7593    0.3148 H   0  0  0  0  0  0  0  0  0  0  0  0
   -7.0314    0.9517   -0.1655 H   0  0  0  0  0  0  0  0  0  0  0  0
   -7.0785    0.5091    1.5393 H   0  0  0  0  0  0  0  0  0  0  0  0
   -4.7740   -0.1355    1.5725 H   0  0  0  0  0  0  0  0  0  0  0  0
   -4.8435    1.4449    0.8443 H   0  0  0  0  0  0  0  0  0  0  0  0
   -4.5455   -1.2130   -0.6924 H   0  0  0  0  0  0  0  0  0  0  0  0
   -3.7027    0.6416   -2.4604 H   0  0  0  0  0  0  0  0  0  0  0  0
   -4.8573    1.6641   -1.6332 H   0  0  0  0  0  0  0  0  0  0  0  0
   -5.4630   -1.0312   -2.9722 H   0  0  0  0  0  0  0  0  0  0  0  0
   -6.6796   -0.0218   -2.1738 H   0  0  0  0  0  0  0  0  0  0  0  0
   -5.8490    0.5707   -3.6156 H   0  0  0  0  0  0  0  0  0  0  0  0
   -0.7408    0.2858    0.1519 H   0  0  0  0  0  0  0  0  0  0  0  0
   -1.1188   -2.9983    1.9660 H   0  0  0  0  0  0  0  0  0  0  0  0
    0.7553   -4.0819    3.1021 H   0  0  0  0  0  0  0  0  0  0  0  0
    3.0273   -3.0624    3.1043 H   0  0  0  0  0  0  0  0  0  0  0  0
    3.5635    2.5301    1.1542 H   0  0  0  0  0  0  0  0  0  0  0  0
    4.4704    3.0666   -1.0304 H   0  0  0  0  0  0  0  0  0  0  0  0
    2.9465    2.2274   -1.2816 H   0  0  0  0  0  0  0  0  0  0  0  0
    4.1703    0.0894   -1.7212 H   0  0  0  0  0  0  0  0  0  0  0  0
    4.7315    1.3920   -2.7891 H   0  0  0  0  0  0  0  0  0  0  0  0
    7.3071    1.0254    0.3578 H   0  0  0  0  0  0  0  0  0  0  0  0
    4.4428   -1.0951    1.3314 H   0  0  0  0  0  0  0  0  0  0  0  0
    3.8846   -0.1035    2.7425 H   0  0  0  0  0  0  0  0  0  0  0  0
  1  2  1  0
  2  3  1  0
  3  4  1  0
  4  5  1  0
  3  6  1  0
  6  7  1  0
  7  8  2  0
  7  9  1  0
  9 10  1  0
 10 11  1  0
 11 12  2  0
 12 13  1  0
 13 14  2  0
 14 15  1  0
 15 16  1  0
 16 17  2  0
 16 18  1  0
 18 19  1  0
 19 20  1  0
 20 21  1  0
 21 22  1  0
 22 23  2  0
 22 24  1  0
 24 25  1  0
 25 26  2  0
 18 27  1  0
 15 10  2  0
 25 19  1  0
 27 14  1  0
  1 28  1  0
  1 29  1  0
  1 30  1  0
  2 31  1  0
  2 32  1  0
  3 33  1  0
  4 34  1  0
  4 35  1  0
  5 36  1  0
  5 37  1  0
  5 38  1  0
  9 39  1  0
 11 40  1  0
 12 41  1  0
 13 42  1  0
 19 43  1  0
 20 44  1  0
 20 45  1  0
 21 46  1  0
 21 47  1  0
 24 48  1  0
 27 49  1  0
 27 50  1  0
M  END
>  <linker>  (30) 
carbamate

>  <mw>  (30) 
373.41

>  <clogp>  (30) 
2.18

>  <tpsa>  (30) 
104.8

>  <cns_mpo_proxy>  (30) 
3.5

>  <qed>  (30) 
0.77

$$$$
GLUE0830
     RDKit          3D

 50 52  0  0  0  0  0  0  0  0999 V2000
   -6.7734    1.5555    0.0443 C   0  0  0  0  0  0  0  0  0  0  0  0
   -5.9430    1.2801   -1.2100 C   0  0  0  0  0  0  0  0  0  0  0  0
   -6.1878    2.3817   -2.2438 C   0  0  0  0  0  0  0  0  0  0  0  0
   -4.4398    1.1747   -0.9058 C   0  0  0  0  0  0  0  0  0  0  0  0
   -4.0783    0.0111    0.0141 C   0  0  0  0  0  0  0  0  0  0  0  0
   -2.6482   -0.0353    0.1241 O   0  0  0  0  0  0  0  0  0  0  0  0
   -2.1749   -1.0425    0.9056 C   0  0  0  0  0  0  0  0  0  0  0  0
   -2.8861   -1.8526    1.4807 O   0  0  0  0  0  0  0  0  0  0  0  0
   -0.8136   -0.9685    0.9194 N   0  0  0  0  0  0  0  0  0  0  0  0
    0.1037   -1.8016    1.5823 C   0  0  0  0  0  0  0  0  0  0  0  0
   -0.2514   -2.9009    2.3684 C   0  0  0  0  0  0  0  0  0  0  0  0
    0.7344   -3.6932    2.9948 C   0  0  0  0  0  0  0  0  0  0  0  0
    2.0951   -3.4067    2.8500 C   0  0  0  0  0  0  0  0  0  0  0  0
    2.4477   -2.3168    2.0775 C   0  0  0  0  0  0  0  0  0  0  0  0
    1.4626   -1.5398    1.4652 C   0  0  0  0  0  0  0  0  0  0  0  0
    2.1400   -0.4700    0.7219 C   0  0  0  0  0  0  0  0  0  0  0  0
    1.5675    0.3376    0.0138 O   0  0  0  0  0  0  0  0  0  0  0  0
    3.4970   -0.5872    0.9788 N   0  0  0  0  0  0  0  0  0  0  0  0
    4.5389    0.1367    0.2570 C   0  0  0  0  0  0  0  0  0  0  0  0
    4.3131    1.6472    0.2013 C   0  0  0  0  0  0  0  0  0  0  0  0
    5.4836    2.3055   -0.5120 C   0  0  0  0  0  0  0  0  0  0  0  0
    5.6776    1.7285   -1.8948 C   0  0  0  0  0  0  0  0  0  0  0  0
    6.2425    2.3503   -2.7899 O   0  0  0  0  0  0  0  0  0  0  0  0
    5.2637    0.4342   -2.0864 N   0  0  0  0  0  0  0  0  0  0  0  0
    4.7316   -0.4309   -1.1578 C   0  0  0  0  0  0  0  0  0  0  0  0
    4.5299   -1.6088   -1.4498 O   0  0  0  0  0  0  0  0  0  0  0  0
    3.8010   -1.7933    1.7347 C   0  0  0  0  0  0  0  0  0  0  0  0
   -6.4305    2.4613    0.5554 H   0  0  0  0  0  0  0  0  0  0  0  0
   -6.7163    0.7222    0.7509 H   0  0  0  0  0  0  0  0  0  0  0  0
   -7.8297    1.6913   -0.2115 H   0  0  0  0  0  0  0  0  0  0  0  0
   -6.2811    0.3308   -1.6445 H   0  0  0  0  0  0  0  0  0  0  0  0
   -7.2496    2.4409   -2.5057 H   0  0  0  0  0  0  0  0  0  0  0  0
   -5.8776    3.3607   -1.8625 H   0  0  0  0  0  0  0  0  0  0  0  0
   -5.6287    2.1838   -3.1646 H   0  0  0  0  0  0  0  0  0  0  0  0
   -3.8831    1.0596   -1.8452 H   0  0  0  0  0  0  0  0  0  0  0  0
   -4.0725    2.1103   -0.4638 H   0  0  0  0  0  0  0  0  0  0  0  0
   -4.5064    0.1597    1.0111 H   0  0  0  0  0  0  0  0  0  0  0  0
   -4.4429   -0.9313   -0.4107 H   0  0  0  0  0  0  0  0  0  0  0  0
   -0.4275   -0.2086    0.3615 H   0  0  0  0  0  0  0  0  0  0  0  0
   -1.2916   -3.1788    2.5159 H   0  0  0  0  0  0  0  0  0  0  0  0
    0.4233   -4.5454    3.5967 H   0  0  0  0  0  0  0  0  0  0  0  0
    2.8439   -4.0294    3.3296 H   0  0  0  0  0  0  0  0  0  0  0  0
    5.4771   -0.0496    0.7970 H   0  0  0  0  0  0  0  0  0  0  0  0
    3.3936    1.8925   -0.3414 H   0  0  0  0  0  0  0  0  0  0  0  0
    4.2117    2.0560    1.2132 H   0  0  0  0  0  0  0  0  0  0  0  0
    5.2935    3.3798   -0.6086 H   0  0  0  0  0  0  0  0  0  0  0  0
    6.4136    2.1686    0.0505 H   0  0  0  0  0  0  0  0  0  0  0  0
    5.4198    0.0509   -3.0085 H   0  0  0  0  0  0  0  0  0  0  0  0
    4.3785   -1.5213    2.6224 H   0  0  0  0  0  0  0  0  0  0  0  0
    4.3491   -2.4990    1.1042 H   0  0  0  0  0  0  0  0  0  0  0  0
  1  2  1  0
  2  3  1  0
  2  4  1  0
  4  5  1  0
  5  6  1  0
  6  7  1  0
  7  8  2  0
  7  9  1  0
  9 10  1  0
 10 11  1  0
 11 12  2  0
 12 13  1  0
 13 14  2  0
 14 15  1  0
 15 16  1  0
 16 17  2  0
 16 18  1  0
 18 19  1  0
 19 20  1  0
 20 21  1  0
 21 22  1  0
 22 23  2  0
 22 24  1  0
 24 25  1  0
 25 26  2  0
 18 27  1  0
 15 10  2  0
 25 19  1  0
 27 14  1  0
  1 28  1  0
  1 29  1  0
  1 30  1  0
  2 31  1  0
  3 32  1  0
  3 33  1  0
  3 34  1  0
  4 35  1  0
  4 36  1  0
  5 37  1  0
  5 38  1  0
  9 39  1  0
 11 40  1  0
 12 41  1  0
 13 42  1  0
 19 43  1  0
 20 44  1  0
 20 45  1  0
 21 46  1  0
 21 47  1  0
 24 48  1  0
 27 49  1  0
 27 50  1  0
M  END
>  <linker>  (31) 
carbamate

>  <mw>  (31) 
373.41

>  <clogp>  (31) 
2.04

>  <tpsa>  (31) 
104.8

>  <cns_mpo_proxy>  (31) 
3.5

>  <qed>  (31) 
0.769

$$$$
GLUE2720
     RDKit          3D

 41 44  0  0  0  0  0  0  0  0999 V2000
   -4.8446    3.1822   -2.2813 O   0  0  0  0  0  0  0  0  0  0  0  0
   -4.2508    2.3022   -1.6648 C   0  0  0  0  0  0  0  0  0  0  0  0
   -4.1359    0.8896   -2.1886 C   0  0  0  0  0  0  0  0  0  0  0  0
   -2.9352    0.1743   -1.5891 C   0  0  0  0  0  0  0  0  0  0  0  0
   -3.0436    0.1946   -0.0648 C   0  0  0  0  0  0  0  0  0  0  0  0
   -1.9662   -0.5221    0.6104 N   0  0  0  0  0  0  0  0  0  0  0  0
   -2.1929   -1.2152    1.8705 C   0  0  0  0  0  0  0  0  0  0  0  0
   -0.8110   -1.5722    2.3024 C   0  0  0  0  0  0  0  0  0  0  0  0
   -0.3913   -2.3050    3.3954 C   0  0  0  0  0  0  0  0  0  0  0  0
    0.9842   -2.4737    3.5796 C   0  0  0  0  0  0  0  0  0  0  0  0
    1.9190   -1.9102    2.6841 C   0  0  0  0  0  0  0  0  0  0  0  0
    1.4981   -1.1639    1.5807 C   0  0  0  0  0  0  0  0  0  0  0  0
    2.3567   -0.5576    0.6408 N   0  0  0  0  0  0  0  0  0  0  0  0
    3.7381   -0.5759    0.5997 C   0  0  0  0  0  0  0  0  0  0  0  0
    4.4428   -1.1643    1.4157 O   0  0  0  0  0  0  0  0  0  0  0  0
    4.3345    0.1678   -0.5102 C   0  0  0  0  0  0  0  0  0  0  0  0
    5.6889    0.3110   -0.7730 C   0  0  0  0  0  0  0  0  0  0  0  0
    5.9459    1.0984   -1.9344 C   0  0  0  0  0  0  0  0  0  0  0  0
    4.7758    1.5208   -2.5068 C   0  0  0  0  0  0  0  0  0  0  0  0
    4.6157    2.4877   -3.9164 Cl  0  0  0  0  0  0  0  0  0  0  0  0
    3.3945    0.9966   -1.6862 S   0  0  0  0  0  0  0  0  0  0  0  0
    0.1243   -1.0228    1.4237 C   0  0  0  0  0  0  0  0  0  0  0  0
   -0.6173   -0.3099    0.3769 C   0  0  0  0  0  0  0  0  0  0  0  0
   -0.0894    0.3435   -0.5039 O   0  0  0  0  0  0  0  0  0  0  0  0
   -3.1555    1.6390    0.4471 C   0  0  0  0  0  0  0  0  0  0  0  0
   -2.8565    1.9782    1.5913 O   0  0  0  0  0  0  0  0  0  0  0  0
   -3.7284    2.5422   -0.4187 N   0  0  0  0  0  0  0  0  0  0  0  0
   -5.0657    0.3601   -1.9538 H   0  0  0  0  0  0  0  0  0  0  0  0
   -4.0282    0.9318   -3.2777 H   0  0  0  0  0  0  0  0  0  0  0  0
   -2.0244    0.6788   -1.9301 H   0  0  0  0  0  0  0  0  0  0  0  0
   -2.8911   -0.8578   -1.9554 H   0  0  0  0  0  0  0  0  0  0  0  0
   -3.9774   -0.3092    0.2194 H   0  0  0  0  0  0  0  0  0  0  0  0
   -2.6680   -0.5387    2.5865 H   0  0  0  0  0  0  0  0  0  0  0  0
   -2.8113   -2.0978    1.6855 H   0  0  0  0  0  0  0  0  0  0  0  0
   -1.0990   -2.7360    4.0968 H   0  0  0  0  0  0  0  0  0  0  0  0
    1.3482   -3.0454    4.4318 H   0  0  0  0  0  0  0  0  0  0  0  0
    2.9727   -2.0758    2.8903 H   0  0  0  0  0  0  0  0  0  0  0  0
    1.8899   -0.0294   -0.0990 H   0  0  0  0  0  0  0  0  0  0  0  0
    6.4571   -0.1351   -0.1503 H   0  0  0  0  0  0  0  0  0  0  0  0
    6.9305    1.3345   -2.3180 H   0  0  0  0  0  0  0  0  0  0  0  0
   -3.8329    3.4848   -0.0689 H   0  0  0  0  0  0  0  0  0  0  0  0
  1  2  2  0
  2  3  1  0
  3  4  1  0
  4  5  1  0
  5  6  1  0
  6  7  1  0
  7  8  1  0
  8  9  2  0
  9 10  1  0
 10 11  2  0
 11 12  1  0
 12 13  1  0
 13 14  1  0
 14 15  2  0
 14 16  1  0
 16 17  2  0
 17 18  1  0
 18 19  2  0
 19 20  1  0
 19 21  1  0
 12 22  2  0
 22 23  1  0
 23 24  2  0
  5 25  1  0
 25 26  2  0
 25 27  1  0
 27  2  1  0
 23  6  1  0
 22  8  1  0
 21 16  1  0
  3 28  1  0
  3 29  1  0
  4 30  1  0
  4 31  1  0
  5 32  1  0
  7 33  1  0
  7 34  1  0
  9 35  1  0
 10 36  1  0
 11 37  1  0
 13 38  1  0
 17 39  1  0
 18 40  1  0
 27 41  1  0
M  END
>  <linker>  (32) 
amide

>  <mw>  (32) 
403.85

>  <clogp>  (32) 
2.41

>  <tpsa>  (32) 
95.6

>  <cns_mpo_proxy>  (32) 
3.5

>  <qed>  (32) 
0.769

$$$$
GLUE1253
     RDKit          3D

 51 55  0  0  0  0  0  0  0  0999 V2000
    4.3871   -3.2725    3.7159 O   0  0  0  0  0  0  0  0  0  0  0  0
    4.1780   -2.5924    2.7156 C   0  0  0  0  0  0  0  0  0  0  0  0
    4.0055   -3.2066    1.3461 C   0  0  0  0  0  0  0  0  0  0  0  0
    3.2057   -2.2939    0.4298 C   0  0  0  0  0  0  0  0  0  0  0  0
    3.8960   -0.9332    0.3425 C   0  0  0  0  0  0  0  0  0  0  0  0
    3.2363    0.0022   -0.5627 N   0  0  0  0  0  0  0  0  0  0  0  0
    3.9984    0.9823   -1.3241 C   0  0  0  0  0  0  0  0  0  0  0  0
    2.9330    1.8499   -1.9029 C   0  0  0  0  0  0  0  0  0  0  0  0
    3.0386    2.9092   -2.7834 C   0  0  0  0  0  0  0  0  0  0  0  0
    1.8634    3.5690   -3.1565 C   0  0  0  0  0  0  0  0  0  0  0  0
    0.6075    3.1754   -2.6459 C   0  0  0  0  0  0  0  0  0  0  0  0
    0.4994    2.1119   -1.7475 C   0  0  0  0  0  0  0  0  0  0  0  0
   -0.7076    1.6556   -1.1770 N   0  0  0  0  0  0  0  0  0  0  0  0
   -1.9777    2.1602   -1.3714 C   0  0  0  0  0  0  0  0  0  0  0  0
   -2.2725    3.1304   -2.0607 O   0  0  0  0  0  0  0  0  0  0  0  0
   -3.0668    1.4493   -0.6354 C   0  0  0  0  0  0  0  0  0  0  0  0
   -4.2087    2.1913   -0.2661 C   0  0  0  0  0  0  0  0  0  0  0  0
   -5.2681    1.5886    0.4181 C   0  0  0  0  0  0  0  0  0  0  0  0
   -5.1666    0.2440    0.7282 C   0  0  0  0  0  0  0  0  0  0  0  0
   -4.0445   -0.5024    0.3527 C   0  0  0  0  0  0  0  0  0  0  0  0
   -2.9925    0.0794   -0.3383 C   0  0  0  0  0  0  0  0  0  0  0  0
   -4.2049   -1.9380    0.7464 C   0  0  0  0  0  0  0  0  0  0  0  0
   -5.3197   -1.8357    1.7973 C   0  0  0  0  0  0  0  0  0  0  0  0
   -6.1782   -0.6224    1.4118 C   0  0  0  0  0  0  0  0  0  0  0  0
    1.6843    1.4706   -1.4082 C   0  0  0  0  0  0  0  0  0  0  0  0
    1.8890    0.3224   -0.5168 C   0  0  0  0  0  0  0  0  0  0  0  0
    1.0002   -0.2069    0.1259 O   0  0  0  0  0  0  0  0  0  0  0  0
    4.0661   -0.3246    1.7430 C   0  0  0  0  0  0  0  0  0  0  0  0
    4.2068    0.8804    1.9468 O   0  0  0  0  0  0  0  0  0  0  0  0
    4.1702   -1.2217    2.7814 N   0  0  0  0  0  0  0  0  0  0  0  0
    3.4801   -4.1611    1.4582 H   0  0  0  0  0  0  0  0  0  0  0  0
    4.9997   -3.4063    0.9317 H   0  0  0  0  0  0  0  0  0  0  0  0
    2.1911   -2.2003    0.8324 H   0  0  0  0  0  0  0  0  0  0  0  0
    3.1195   -2.7431   -0.5662 H   0  0  0  0  0  0  0  0  0  0  0  0
    4.9088   -1.0875   -0.0541 H   0  0  0  0  0  0  0  0  0  0  0  0
    4.5758    0.4640   -2.0945 H   0  0  0  0  0  0  0  0  0  0  0  0
    4.6489    1.5497   -0.6527 H   0  0  0  0  0  0  0  0  0  0  0  0
    3.9987    3.2282   -3.1769 H   0  0  0  0  0  0  0  0  0  0  0  0
    1.9112    4.4071   -3.8498 H   0  0  0  0  0  0  0  0  0  0  0  0
   -0.2674    3.7314   -2.9715 H   0  0  0  0  0  0  0  0  0  0  0  0
   -0.5922    0.9021   -0.4997 H   0  0  0  0  0  0  0  0  0  0  0  0
   -4.2703    3.2487   -0.5186 H   0  0  0  0  0  0  0  0  0  0  0  0
   -6.1461    2.1650    0.6920 H   0  0  0  0  0  0  0  0  0  0  0  0
   -2.1536   -0.5330   -0.6522 H   0  0  0  0  0  0  0  0  0  0  0  0
   -3.2910   -2.3600    1.1737 H   0  0  0  0  0  0  0  0  0  0  0  0
   -4.5264   -2.5312   -0.1158 H   0  0  0  0  0  0  0  0  0  0  0  0
   -5.9073   -2.7559    1.8743 H   0  0  0  0  0  0  0  0  0  0  0  0
   -4.8684   -1.6575    2.7834 H   0  0  0  0  0  0  0  0  0  0  0  0
   -6.6122   -0.1439    2.2941 H   0  0  0  0  0  0  0  0  0  0  0  0
   -6.9689   -0.9043    0.7089 H   0  0  0  0  0  0  0  0  0  0  0  0
    4.3124   -0.8211    3.6986 H   0  0  0  0  0  0  0  0  0  0  0  0
  1  2  2  0
  2  3  1  0
  3  4  1  0
  4  5  1  0
  5  6  1  0
  6  7  1  0
  7  8  1  0
  8  9  2  0
  9 10  1  0
 10 11  2  0
 11 12  1  0
 12 13  1  0
 13 14  1  0
 14 15  2  0
 14 16  1  0
 16 17  1  0
 17 18  2  0
 18 19  1  0
 19 20  2  0
 20 21  1  0
 20 22  1  0
 22 23  1  0
 23 24  1  0
 12 25  2  0
 25 26  1  0
 26 27  2  0
  5 28  1  0
 28 29  2  0
 28 30  1  0
 30  2  1  0
 26  6  1  0
 25  8  1  0
 21 16  2  0
 24 19  1  0
  3 31  1  0
  3 32  1  0
  4 33  1  0
  4 34  1  0
  5 35  1  0
  7 36  1  0
  7 37  1  0
  9 38  1  0
 10 39  1  0
 11 40  1  0
 13 41  1  0
 17 42  1  0
 18 43  1  0
 21 44  1  0
 22 45  1  0
 22 46  1  0
 23 47  1  0
 23 48  1  0
 24 49  1  0
 24 50  1  0
 30 51  1  0
M  END
>  <linker>  (33) 
amide

>  <mw>  (33) 
403.44

>  <clogp>  (33) 
2.19

>  <tpsa>  (33) 
95.6

>  <cns_mpo_proxy>  (33) 
3.5

>  <qed>  (33) 
0.768

$$$$
GLUE0105
     RDKit          3D

 53 56  0  0  0  0  0  0  0  0999 V2000
   -4.8754    0.2202   -1.3144 C   0  0  0  0  0  0  0  0  0  0  0  0
   -4.1128    0.8045   -0.1525 C   0  0  0  0  0  0  0  0  0  0  0  0
   -4.0705    2.2020   -0.0287 C   0  0  0  0  0  0  0  0  0  0  0  0
   -3.3725    2.8048    1.0113 C   0  0  0  0  0  0  0  0  0  0  0  0
   -2.7018    2.0187    1.9416 C   0  0  0  0  0  0  0  0  0  0  0  0
   -2.7110    0.6183    1.8433 C   0  0  0  0  0  0  0  0  0  0  0  0
   -1.9692   -0.1679    2.8933 C   0  0  0  0  0  0  0  0  0  0  0  0
   -3.4184   -0.0043    0.7838 C   0  0  0  0  0  0  0  0  0  0  0  0
   -3.4247   -1.5182    0.6363 C   0  0  0  0  0  0  0  0  0  0  0  0
   -2.6484   -2.0351   -0.5682 C   0  0  0  0  0  0  0  0  0  0  0  0
   -3.1705   -2.8234   -1.3537 O   0  0  0  0  0  0  0  0  0  0  0  0
   -1.3473   -1.5763   -0.6287 N   0  0  0  0  0  0  0  0  0  0  0  0
   -0.3644   -1.8766   -1.5933 C   0  0  0  0  0  0  0  0  0  0  0  0
   -0.5507   -2.7320   -2.6816 C   0  0  0  0  0  0  0  0  0  0  0  0
    0.4920   -2.9741   -3.6020 C   0  0  0  0  0  0  0  0  0  0  0  0
    1.7439   -2.3689   -3.4566 C   0  0  0  0  0  0  0  0  0  0  0  0
    1.9302   -1.5206   -2.3822 C   0  0  0  0  0  0  0  0  0  0  0  0
    0.8902   -1.2905   -1.4796 C   0  0  0  0  0  0  0  0  0  0  0  0
    1.3908   -0.3677   -0.4534 C   0  0  0  0  0  0  0  0  0  0  0  0
    0.7607   -0.0372    0.5342 O   0  0  0  0  0  0  0  0  0  0  0  0
    2.6736    0.0021   -0.8242 N   0  0  0  0  0  0  0  0  0  0  0  0
    3.5979    0.7397    0.0305 C   0  0  0  0  0  0  0  0  0  0  0  0
    3.0074    2.0283    0.6024 C   0  0  0  0  0  0  0  0  0  0  0  0
    4.0652    2.7453    1.4263 C   0  0  0  0  0  0  0  0  0  0  0  0
    4.5995    1.8554    2.5239 C   0  0  0  0  0  0  0  0  0  0  0  0
    5.1038    2.3091    3.5471 O   0  0  0  0  0  0  0  0  0  0  0  0
    4.5693    0.5035    2.2905 N   0  0  0  0  0  0  0  0  0  0  0  0
    4.1427   -0.1511    1.1576 C   0  0  0  0  0  0  0  0  0  0  0  0
    4.2965   -1.3669    1.0480 O   0  0  0  0  0  0  0  0  0  0  0  0
    3.1463   -0.7636   -1.9683 C   0  0  0  0  0  0  0  0  0  0  0  0
   -5.5349   -0.5883   -0.9858 H   0  0  0  0  0  0  0  0  0  0  0  0
   -5.5156    0.9724   -1.7884 H   0  0  0  0  0  0  0  0  0  0  0  0
   -4.1815   -0.1521   -2.0737 H   0  0  0  0  0  0  0  0  0  0  0  0
   -4.5873    2.8335   -0.7484 H   0  0  0  0  0  0  0  0  0  0  0  0
   -3.3517    3.8876    1.0977 H   0  0  0  0  0  0  0  0  0  0  0  0
   -2.1632    2.5095    2.7497 H   0  0  0  0  0  0  0  0  0  0  0  0
   -1.4234    0.4892    3.5791 H   0  0  0  0  0  0  0  0  0  0  0  0
   -1.2325   -0.8328    2.4332 H   0  0  0  0  0  0  0  0  0  0  0  0
   -2.6736   -0.7553    3.4909 H   0  0  0  0  0  0  0  0  0  0  0  0
   -4.4637   -1.8614    0.5602 H   0  0  0  0  0  0  0  0  0  0  0  0
   -3.0250   -2.0244    1.5206 H   0  0  0  0  0  0  0  0  0  0  0  0
   -1.0558   -0.9094    0.0886 H   0  0  0  0  0  0  0  0  0  0  0  0
   -1.4988   -3.2350   -2.8507 H   0  0  0  0  0  0  0  0  0  0  0  0
    0.3122   -3.6492   -4.4370 H   0  0  0  0  0  0  0  0  0  0  0  0
    2.5394   -2.5695   -4.1674 H   0  0  0  0  0  0  0  0  0  0  0  0
    4.4583    1.0062   -0.5983 H   0  0  0  0  0  0  0  0  0  0  0  0
    2.6561    2.6790   -0.2065 H   0  0  0  0  0  0  0  0  0  0  0  0
    2.1467    1.8202    1.2477 H   0  0  0  0  0  0  0  0  0  0  0  0
    4.9064    3.0591    0.7987 H   0  0  0  0  0  0  0  0  0  0  0  0
    3.6261    3.6371    1.8862 H   0  0  0  0  0  0  0  0  0  0  0  0
    4.9540   -0.0810    3.0200 H   0  0  0  0  0  0  0  0  0  0  0  0
    3.9463   -1.4409   -1.6562 H   0  0  0  0  0  0  0  0  0  0  0  0
    3.4890   -0.0723   -2.7430 H   0  0  0  0  0  0  0  0  0  0  0  0
  1  2  1  0
  2  3  1  0
  3  4  2  0
  4  5  1  0
  5  6  2  0
  6  7  1  0
  6  8  1  0
  8  9  1  0
  9 10  1  0
 10 11  2  0
 10 12  1  0
 12 13  1  0
 13 14  1  0
 14 15  2  0
 15 16  1  0
 16 17  2  0
 17 18  1  0
 18 19  1  0
 19 20  2  0
 19 21  1  0
 21 22  1  0
 22 23  1  0
 23 24  1  0
 24 25  1  0
 25 26  2  0
 25 27  1  0
 27 28  1  0
 28 29  2  0
 21 30  1  0
  8  2  2  0
 18 13  2  0
 28 22  1  0
 30 17  1  0
  1 31  1  0
  1 32  1  0
  1 33  1  0
  3 34  1  0
  4 35  1  0
  5 36  1  0
  7 37  1  0
  7 38  1  0
  7 39  1  0
  9 40  1  0
  9 41  1  0
 12 42  1  0
 14 43  1  0
 15 44  1  0
 16 45  1  0
 22 46  1  0
 23 47  1  0
 23 48  1  0
 24 49  1  0
 24 50  1  0
 27 51  1  0
 30 52  1  0
 30 53  1  0
M  END
>  <linker>  (34) 
acetamide

>  <mw>  (34) 
405.45

>  <clogp>  (34) 
2.25

>  <tpsa>  (34) 
95.6

>  <cns_mpo_proxy>  (34) 
3.5

>  <qed>  (34) 
0.763

$$$$
GLUE0427
     RDKit          3D

 53 56  0  0  0  0  0  0  0  0999 V2000
   -4.8016    3.5608   -0.1327 C   0  0  0  0  0  0  0  0  0  0  0  0
   -4.3805    2.1458   -0.4034 C   0  0  0  0  0  0  0  0  0  0  0  0
   -3.2731    1.8666   -1.2062 C   0  0  0  0  0  0  0  0  0  0  0  0
   -2.8741    0.5475   -1.4227 C   0  0  0  0  0  0  0  0  0  0  0  0
   -3.5733   -0.5264   -0.8418 C   0  0  0  0  0  0  0  0  0  0  0  0
   -3.0658   -1.9335   -1.0760 C   0  0  0  0  0  0  0  0  0  0  0  0
   -2.2567   -2.4680    0.0965 C   0  0  0  0  0  0  0  0  0  0  0  0
   -2.7494   -3.2423    0.9116 O   0  0  0  0  0  0  0  0  0  0  0  0
   -0.9591   -1.9916    0.1054 N   0  0  0  0  0  0  0  0  0  0  0  0
    0.0553   -2.2475    1.0480 C   0  0  0  0  0  0  0  0  0  0  0  0
   -0.0776   -3.0785    2.1623 C   0  0  0  0  0  0  0  0  0  0  0  0
    0.9951   -3.2594    3.0615 C   0  0  0  0  0  0  0  0  0  0  0  0
    2.2220   -2.6141    2.8687 C   0  0  0  0  0  0  0  0  0  0  0  0
    2.3573   -1.7952    1.7635 C   0  0  0  0  0  0  0  0  0  0  0  0
    1.2890   -1.6308    0.8808 C   0  0  0  0  0  0  0  0  0  0  0  0
    1.7237   -0.7165   -0.1820 C   0  0  0  0  0  0  0  0  0  0  0  0
    1.0101   -0.3215   -1.0861 O   0  0  0  0  0  0  0  0  0  0  0  0
    3.0456   -0.3963    0.0692 N   0  0  0  0  0  0  0  0  0  0  0  0
    3.7745    0.6093   -0.6990 C   0  0  0  0  0  0  0  0  0  0  0  0
    3.5382    2.0088   -0.1314 C   0  0  0  0  0  0  0  0  0  0  0  0
    4.1917    3.0414   -1.0361 C   0  0  0  0  0  0  0  0  0  0  0  0
    5.6642    2.7627   -1.2121 C   0  0  0  0  0  0  0  0  0  0  0  0
    6.4833    3.6512   -1.4188 O   0  0  0  0  0  0  0  0  0  0  0  0
    6.0478    1.4472   -1.1716 N   0  0  0  0  0  0  0  0  0  0  0  0
    5.2838    0.3546   -0.8290 C   0  0  0  0  0  0  0  0  0  0  0  0
    5.8113   -0.7465   -0.6936 O   0  0  0  0  0  0  0  0  0  0  0  0
    3.5332   -0.9928    1.3079 C   0  0  0  0  0  0  0  0  0  0  0  0
   -4.6966   -0.2535   -0.0337 C   0  0  0  0  0  0  0  0  0  0  0  0
   -5.4741   -1.3379    0.6654 C   0  0  0  0  0  0  0  0  0  0  0  0
   -5.0777    1.0830    0.1832 C   0  0  0  0  0  0  0  0  0  0  0  0
   -4.2767    4.2648   -0.7863 H   0  0  0  0  0  0  0  0  0  0  0  0
   -4.5792    3.8273    0.9055 H   0  0  0  0  0  0  0  0  0  0  0  0
   -5.8757    3.6820   -0.3129 H   0  0  0  0  0  0  0  0  0  0  0  0
   -2.7058    2.6736   -1.6632 H   0  0  0  0  0  0  0  0  0  0  0  0
   -1.9990    0.3685   -2.0465 H   0  0  0  0  0  0  0  0  0  0  0  0
   -2.4431   -1.9712   -1.9825 H   0  0  0  0  0  0  0  0  0  0  0  0
   -3.8955   -2.6211   -1.2810 H   0  0  0  0  0  0  0  0  0  0  0  0
   -0.7037   -1.3293   -0.6285 H   0  0  0  0  0  0  0  0  0  0  0  0
   -1.0062   -3.6041    2.3694 H   0  0  0  0  0  0  0  0  0  0  0  0
    0.8585   -3.9146    3.9211 H   0  0  0  0  0  0  0  0  0  0  0  0
    3.0381   -2.7620    3.5688 H   0  0  0  0  0  0  0  0  0  0  0  0
    3.3729    0.5755   -1.7206 H   0  0  0  0  0  0  0  0  0  0  0  0
    2.4655    2.2175   -0.0516 H   0  0  0  0  0  0  0  0  0  0  0  0
    3.9555    2.0821    0.8804 H   0  0  0  0  0  0  0  0  0  0  0  0
    3.7240    3.0462   -2.0255 H   0  0  0  0  0  0  0  0  0  0  0  0
    4.0748    4.0363   -0.5968 H   0  0  0  0  0  0  0  0  0  0  0  0
    7.0392    1.2767   -1.2726 H   0  0  0  0  0  0  0  0  0  0  0  0
    3.7793   -0.2014    2.0214 H   0  0  0  0  0  0  0  0  0  0  0  0
    4.3907   -1.6380    1.1066 H   0  0  0  0  0  0  0  0  0  0  0  0
   -5.6373   -2.2017    0.0123 H   0  0  0  0  0  0  0  0  0  0  0  0
   -4.9456   -1.6542    1.5706 H   0  0  0  0  0  0  0  0  0  0  0  0
   -6.4673   -0.9800    0.9617 H   0  0  0  0  0  0  0  0  0  0  0  0
   -5.9302    1.3004    0.8274 H   0  0  0  0  0  0  0  0  0  0  0  0
  1  2  1  0
  2  3  1  0
  3  4  2  0
  4  5  1  0
  5  6  1  0
  6  7  1  0
  7  8  2  0
  7  9  1  0
  9 10  1  0
 10 11  1  0
 11 12  2  0
 12 13  1  0
 13 14  2  0
 14 15  1  0
 15 16  1  0
 16 17  2  0
 16 18  1  0
 18 19  1  0
 19 20  1  0
 20 21  1  0
 21 22  1  0
 22 23  2  0
 22 24  1  0
 24 25  1  0
 25 26  2  0
 18 27  1  0
  5 28  2  0
 28 29  1  0
 28 30  1  0
 30  2  2  0
 15 10  2  0
 25 19  1  0
 27 14  1  0
  1 31  1  0
  1 32  1  0
  1 33  1  0
  3 34  1  0
  4 35  1  0
  6 36  1  0
  6 37  1  0
  9 38  1  0
 11 39  1  0
 12 40  1  0
 13 41  1  0
 19 42  1  0
 20 43  1  0
 20 44  1  0
 21 45  1  0
 21 46  1  0
 24 47  1  0
 27 48  1  0
 27 49  1  0
 29 50  1  0
 29 51  1  0
 29 52  1  0
 30 53  1  0
M  END
>  <linker>  (35) 
acetamide

>  <mw>  (35) 
405.45

>  <clogp>  (35) 
2.25

>  <tpsa>  (35) 
95.6

>  <cns_mpo_proxy>  (35) 
3.5

>  <qed>  (35) 
0.763

$$$$
GLUE0599
     RDKit          3D

 53 56  0  0  0  0  0  0  0  0999 V2000
   -5.6938    2.2992    0.5503 C   0  0  0  0  0  0  0  0  0  0  0  0
   -5.3629    1.3258   -0.5522 C   0  0  0  0  0  0  0  0  0  0  0  0
   -6.4167    0.8141   -1.3265 C   0  0  0  0  0  0  0  0  0  0  0  0
   -6.1736   -0.0992   -2.3463 C   0  0  0  0  0  0  0  0  0  0  0  0
   -4.8731   -0.5190   -2.6009 C   0  0  0  0  0  0  0  0  0  0  0  0
   -3.7909   -0.0197   -1.8535 C   0  0  0  0  0  0  0  0  0  0  0  0
   -2.4100   -0.5554   -2.1765 C   0  0  0  0  0  0  0  0  0  0  0  0
   -1.8943   -1.5462   -1.1394 C   0  0  0  0  0  0  0  0  0  0  0  0
   -2.4821   -2.5999   -0.9090 O   0  0  0  0  0  0  0  0  0  0  0  0
   -0.7201   -1.1305   -0.5380 N   0  0  0  0  0  0  0  0  0  0  0  0
    0.0109   -1.7838    0.4743 C   0  0  0  0  0  0  0  0  0  0  0  0
   -0.3598   -2.9834    1.0843 C   0  0  0  0  0  0  0  0  0  0  0  0
    0.4385   -3.5570    2.0982 C   0  0  0  0  0  0  0  0  0  0  0  0
    1.6228   -2.9463    2.5256 C   0  0  0  0  0  0  0  0  0  0  0  0
    1.9931   -1.7617    1.9195 C   0  0  0  0  0  0  0  0  0  0  0  0
    1.1934   -1.2072    0.9201 C   0  0  0  0  0  0  0  0  0  0  0  0
    1.8356    0.0342    0.4759 C   0  0  0  0  0  0  0  0  0  0  0  0
    1.3333    0.8059   -0.3215 O   0  0  0  0  0  0  0  0  0  0  0  0
    3.0571    0.1305    1.1318 N   0  0  0  0  0  0  0  0  0  0  0  0
    3.8788    1.3467    1.1083 C   0  0  0  0  0  0  0  0  0  0  0  0
    4.2984    1.7662   -0.3059 C   0  0  0  0  0  0  0  0  0  0  0  0
    5.2533    0.7428   -0.9006 C   0  0  0  0  0  0  0  0  0  0  0  0
    6.4538    0.5395   -0.0117 C   0  0  0  0  0  0  0  0  0  0  0  0
    7.5003    0.0468   -0.4247 O   0  0  0  0  0  0  0  0  0  0  0  0
    6.3066    0.8770    1.3113 N   0  0  0  0  0  0  0  0  0  0  0  0
    5.1454    1.2116    1.9688 C   0  0  0  0  0  0  0  0  0  0  0  0
    5.1191    1.2583    3.1986 O   0  0  0  0  0  0  0  0  0  0  0  0
    3.1696   -0.8829    2.1805 C   0  0  0  0  0  0  0  0  0  0  0  0
   -4.0300    0.9330   -0.8313 C   0  0  0  0  0  0  0  0  0  0  0  0
   -2.8968    1.4744    0.0058 C   0  0  0  0  0  0  0  0  0  0  0  0
   -6.7729    2.3398    0.7352 H   0  0  0  0  0  0  0  0  0  0  0  0
   -5.2207    1.9956    1.4937 H   0  0  0  0  0  0  0  0  0  0  0  0
   -5.3602    3.3077    0.2785 H   0  0  0  0  0  0  0  0  0  0  0  0
   -7.4422    1.1210   -1.1309 H   0  0  0  0  0  0  0  0  0  0  0  0
   -6.9977   -0.4961   -2.9324 H   0  0  0  0  0  0  0  0  0  0  0  0
   -4.7073   -1.2559   -3.3859 H   0  0  0  0  0  0  0  0  0  0  0  0
   -1.7163    0.2761   -2.3290 H   0  0  0  0  0  0  0  0  0  0  0  0
   -2.4195   -1.0879   -3.1351 H   0  0  0  0  0  0  0  0  0  0  0  0
   -0.3179   -0.2450   -0.8486 H   0  0  0  0  0  0  0  0  0  0  0  0
   -1.2716   -3.5048    0.8020 H   0  0  0  0  0  0  0  0  0  0  0  0
    0.1174   -4.4907    2.5568 H   0  0  0  0  0  0  0  0  0  0  0  0
    2.2216   -3.3934    3.3143 H   0  0  0  0  0  0  0  0  0  0  0  0
    3.2720    2.1517    1.5416 H   0  0  0  0  0  0  0  0  0  0  0  0
    3.4375    1.8951   -0.9670 H   0  0  0  0  0  0  0  0  0  0  0  0
    4.8028    2.7398   -0.2570 H   0  0  0  0  0  0  0  0  0  0  0  0
    5.6053    1.0993   -1.8738 H   0  0  0  0  0  0  0  0  0  0  0  0
    4.7608   -0.2225   -1.0457 H   0  0  0  0  0  0  0  0  0  0  0  0
    7.1122    0.7055    1.8968 H   0  0  0  0  0  0  0  0  0  0  0  0
    3.0753   -0.4075    3.1598 H   0  0  0  0  0  0  0  0  0  0  0  0
    4.1167   -1.4167    2.0725 H   0  0  0  0  0  0  0  0  0  0  0  0
   -2.7275    0.8270    0.8705 H   0  0  0  0  0  0  0  0  0  0  0  0
   -1.9686    1.5596   -0.5675 H   0  0  0  0  0  0  0  0  0  0  0  0
   -3.1051    2.4885    0.3611 H   0  0  0  0  0  0  0  0  0  0  0  0
  1  2  1  0
  2  3  1  0
  3  4  2  0
  4  5  1  0
  5  6  2  0
  6  7  1  0
  7  8  1  0
  8  9  2  0
  8 10  1  0
 10 11  1  0
 11 12  1  0
 12 13  2  0
 13 14  1  0
 14 15  2  0
 15 16  1  0
 16 17  1  0
 17 18  2  0
 17 19  1  0
 19 20  1  0
 20 21  1  0
 21 22  1  0
 22 23  1  0
 23 24  2  0
 23 25  1  0
 25 26  1  0
 26 27  2  0
 19 28  1  0
  6 29  1  0
 29 30  1  0
 29  2  2  0
 16 11  2  0
 26 20  1  0
 28 15  1  0
  1 31  1  0
  1 32  1  0
  1 33  1  0
  3 34  1  0
  4 35  1  0
  5 36  1  0
  7 37  1  0
  7 38  1  0
 10 39  1  0
 12 40  1  0
 13 41  1  0
 14 42  1  0
 20 43  1  0
 21 44  1  0
 21 45  1  0
 22 46  1  0
 22 47  1  0
 25 48  1  0
 28 49  1  0
 28 50  1  0
 30 51  1  0
 30 52  1  0
 30 53  1  0
M  END
>  <linker>  (36) 
acetamide

>  <mw>  (36) 
405.45

>  <clogp>  (36) 
2.25

>  <tpsa>  (36) 
95.6

>  <cns_mpo_proxy>  (36) 
3.5

>  <qed>  (36) 
0.763

$$$$
GLUE1231
     RDKit          3D

 53 56  0  0  0  0  0  0  0  0999 V2000
   -7.3602    1.3638   -1.0619 C   0  0  0  0  0  0  0  0  0  0  0  0
   -6.0449    1.0984   -0.3824 C   0  0  0  0  0  0  0  0  0  0  0  0
   -4.8566    1.4449   -1.0422 C   0  0  0  0  0  0  0  0  0  0  0  0
   -3.6144    1.2308   -0.4429 C   0  0  0  0  0  0  0  0  0  0  0  0
   -3.5352    0.6744    0.8366 C   0  0  0  0  0  0  0  0  0  0  0  0
   -2.1936    0.4313    1.4849 C   0  0  0  0  0  0  0  0  0  0  0  0
   -1.6057   -0.9343    1.1532 C   0  0  0  0  0  0  0  0  0  0  0  0
   -2.2379   -1.9732    1.3430 O   0  0  0  0  0  0  0  0  0  0  0  0
   -0.3100   -0.8539    0.6673 N   0  0  0  0  0  0  0  0  0  0  0  0
    0.5298   -1.9172    0.2731 C   0  0  0  0  0  0  0  0  0  0  0  0
    0.1456   -3.2585    0.2098 C   0  0  0  0  0  0  0  0  0  0  0  0
    1.0626   -4.2592   -0.1765 C   0  0  0  0  0  0  0  0  0  0  0  0
    2.3835   -3.9440   -0.5072 C   0  0  0  0  0  0  0  0  0  0  0  0
    2.7638   -2.6168   -0.4572 C   0  0  0  0  0  0  0  0  0  0  0  0
    1.8441   -1.6370   -0.0804 C   0  0  0  0  0  0  0  0  0  0  0  0
    2.5358   -0.3423   -0.1109 C   0  0  0  0  0  0  0  0  0  0  0  0
    2.0246    0.7079    0.2382 O   0  0  0  0  0  0  0  0  0  0  0  0
    3.8216   -0.5736   -0.5784 N   0  0  0  0  0  0  0  0  0  0  0  0
    4.9078    0.3998   -0.5278 C   0  0  0  0  0  0  0  0  0  0  0  0
    4.5506    1.7618   -1.1234 C   0  0  0  0  0  0  0  0  0  0  0  0
    5.7821    2.6549   -1.0933 C   0  0  0  0  0  0  0  0  0  0  0  0
    6.3476    2.7774    0.3031 C   0  0  0  0  0  0  0  0  0  0  0  0
    7.1074    3.6875    0.6211 O   0  0  0  0  0  0  0  0  0  0  0  0
    6.0465    1.7692    1.1859 N   0  0  0  0  0  0  0  0  0  0  0  0
    5.4397    0.5666    0.9065 C   0  0  0  0  0  0  0  0  0  0  0  0
    5.4384   -0.3382    1.7417 O   0  0  0  0  0  0  0  0  0  0  0  0
    4.0951   -1.9974   -0.7215 C   0  0  0  0  0  0  0  0  0  0  0  0
   -4.7196    0.3266    1.4999 C   0  0  0  0  0  0  0  0  0  0  0  0
   -5.9768    0.5457    0.9113 C   0  0  0  0  0  0  0  0  0  0  0  0
   -7.2162    0.1554    1.6681 C   0  0  0  0  0  0  0  0  0  0  0  0
   -7.2245    1.5335   -2.1347 H   0  0  0  0  0  0  0  0  0  0  0  0
   -8.0332    0.5053   -0.9612 H   0  0  0  0  0  0  0  0  0  0  0  0
   -7.8324    2.2532   -0.6336 H   0  0  0  0  0  0  0  0  0  0  0  0
   -4.8906    1.8827   -2.0371 H   0  0  0  0  0  0  0  0  0  0  0  0
   -2.7121    1.5025   -0.9853 H   0  0  0  0  0  0  0  0  0  0  0  0
   -1.5088    1.2341    1.1915 H   0  0  0  0  0  0  0  0  0  0  0  0
   -2.2793    0.4986    2.5753 H   0  0  0  0  0  0  0  0  0  0  0  0
    0.1335    0.0656    0.6459 H   0  0  0  0  0  0  0  0  0  0  0  0
   -0.8653   -3.5698    0.4554 H   0  0  0  0  0  0  0  0  0  0  0  0
    0.7307   -5.2956   -0.2072 H   0  0  0  0  0  0  0  0  0  0  0  0
    3.0825   -4.7253   -0.7870 H   0  0  0  0  0  0  0  0  0  0  0  0
    5.7338   -0.0264   -1.1175 H   0  0  0  0  0  0  0  0  0  0  0  0
    3.7514    2.2485   -0.5534 H   0  0  0  0  0  0  0  0  0  0  0  0
    4.1935    1.6486   -2.1533 H   0  0  0  0  0  0  0  0  0  0  0  0
    5.5176    3.6552   -1.4478 H   0  0  0  0  0  0  0  0  0  0  0  0
    6.5669    2.2563   -1.7429 H   0  0  0  0  0  0  0  0  0  0  0  0
    6.4595    1.8487    2.1048 H   0  0  0  0  0  0  0  0  0  0  0  0
    4.8301   -2.3123    0.0265 H   0  0  0  0  0  0  0  0  0  0  0  0
    4.4524   -2.1924   -1.7375 H   0  0  0  0  0  0  0  0  0  0  0  0
   -4.6598   -0.1294    2.4874 H   0  0  0  0  0  0  0  0  0  0  0  0
   -6.9831   -0.1173    2.7035 H   0  0  0  0  0  0  0  0  0  0  0  0
   -7.9250    0.9913    1.7037 H   0  0  0  0  0  0  0  0  0  0  0  0
   -7.6932   -0.7065    1.1921 H   0  0  0  0  0  0  0  0  0  0  0  0
  1  2  1  0
  2  3  1  0
  3  4  2  0
  4  5  1  0
  5  6  1  0
  6  7  1  0
  7  8  2  0
  7  9  1  0
  9 10  1  0
 10 11  1  0
 11 12  2  0
 12 13  1  0
 13 14  2  0
 14 15  1  0
 15 16  1  0
 16 17  2  0
 16 18  1  0
 18 19  1  0
 19 20  1  0
 20 21  1  0
 21 22  1  0
 22 23  2  0
 22 24  1  0
 24 25  1  0
 25 26  2  0
 18 27  1  0
  5 28  2  0
 28 29  1  0
 29 30  1  0
 29  2  2  0
 15 10  2  0
 25 19  1  0
 27 14  1  0
  1 31  1  0
  1 32  1  0
  1 33  1  0
  3 34  1  0
  4 35  1  0
  6 36  1  0
  6 37  1  0
  9 38  1  0
 11 39  1  0
 12 40  1  0
 13 41  1  0
 19 42  1  0
 20 43  1  0
 20 44  1  0
 21 45  1  0
 21 46  1  0
 24 47  1  0
 27 48  1  0
 27 49  1  0
 28 50  1  0
 30 51  1  0
 30 52  1  0
 30 53  1  0
M  END
>  <linker>  (37) 
acetamide

>  <mw>  (37) 
405.45

>  <clogp>  (37) 
2.25

>  <tpsa>  (37) 
95.6

>  <cns_mpo_proxy>  (37) 
3.5

>  <qed>  (37) 
0.763

$$$$
GLUE2038
     RDKit          3D

 53 56  0  0  0  0  0  0  0  0999 V2000
   -7.3905    0.3563    1.5525 C   0  0  0  0  0  0  0  0  0  0  0  0
   -6.1693    0.8233    0.8157 C   0  0  0  0  0  0  0  0  0  0  0  0
   -6.2952    1.5907   -0.3490 C   0  0  0  0  0  0  0  0  0  0  0  0
   -5.1628    2.0002   -1.0645 C   0  0  0  0  0  0  0  0  0  0  0  0
   -5.3015    2.8003   -2.3258 C   0  0  0  0  0  0  0  0  0  0  0  0
   -3.8931    1.6132   -0.6159 C   0  0  0  0  0  0  0  0  0  0  0  0
   -3.7472    0.8420    0.5457 C   0  0  0  0  0  0  0  0  0  0  0  0
   -2.3763    0.4246    1.0211 C   0  0  0  0  0  0  0  0  0  0  0  0
   -1.8802   -0.8861    0.4194 C   0  0  0  0  0  0  0  0  0  0  0  0
   -2.6360   -1.8134    0.1353 O   0  0  0  0  0  0  0  0  0  0  0  0
   -0.4988   -0.9074    0.2953 N   0  0  0  0  0  0  0  0  0  0  0  0
    0.3067   -1.9425   -0.2237 C   0  0  0  0  0  0  0  0  0  0  0  0
   -0.1752   -3.1240   -0.7905 C   0  0  0  0  0  0  0  0  0  0  0  0
    0.7117   -4.0996   -1.2957 C   0  0  0  0  0  0  0  0  0  0  0  0
    2.0980   -3.9179   -1.2469 C   0  0  0  0  0  0  0  0  0  0  0  0
    2.5771   -2.7518   -0.6824 C   0  0  0  0  0  0  0  0  0  0  0  0
    1.6882   -1.7969   -0.1868 C   0  0  0  0  0  0  0  0  0  0  0  0
    2.4822   -0.6859    0.3504 C   0  0  0  0  0  0  0  0  0  0  0  0
    1.9995    0.3410    0.7926 O   0  0  0  0  0  0  0  0  0  0  0  0
    3.8156   -1.0430    0.2373 N   0  0  0  0  0  0  0  0  0  0  0  0
    4.9368   -0.1370    0.4627 C   0  0  0  0  0  0  0  0  0  0  0  0
    4.8757    0.5912    1.8048 C   0  0  0  0  0  0  0  0  0  0  0  0
    6.1148    1.4571    1.9646 C   0  0  0  0  0  0  0  0  0  0  0  0
    6.2523    2.4322    0.8196 C   0  0  0  0  0  0  0  0  0  0  0  0
    6.8774    3.4826    0.9266 O   0  0  0  0  0  0  0  0  0  0  0  0
    5.7081    2.0526   -0.3821 N   0  0  0  0  0  0  0  0  0  0  0  0
    5.0782    0.8685   -0.6898 C   0  0  0  0  0  0  0  0  0  0  0  0
    4.7507    0.6207   -1.8489 O   0  0  0  0  0  0  0  0  0  0  0  0
    3.9819   -2.2825   -0.5092 C   0  0  0  0  0  0  0  0  0  0  0  0
   -4.8931    0.4421    1.2477 C   0  0  0  0  0  0  0  0  0  0  0  0
   -7.7509   -0.5832    1.1220 H   0  0  0  0  0  0  0  0  0  0  0  0
   -8.1890    1.1031    1.4939 H   0  0  0  0  0  0  0  0  0  0  0  0
   -7.1718    0.1975    2.6145 H   0  0  0  0  0  0  0  0  0  0  0  0
   -7.2865    1.8667   -0.7038 H   0  0  0  0  0  0  0  0  0  0  0  0
   -6.2933    3.2569   -2.3995 H   0  0  0  0  0  0  0  0  0  0  0  0
   -4.5674    3.6117   -2.3456 H   0  0  0  0  0  0  0  0  0  0  0  0
   -5.1486    2.1571   -3.1974 H   0  0  0  0  0  0  0  0  0  0  0  0
   -3.0125    1.9118   -1.1822 H   0  0  0  0  0  0  0  0  0  0  0  0
   -2.3770    0.3090    2.1120 H   0  0  0  0  0  0  0  0  0  0  0  0
   -1.6687    1.2329    0.7985 H   0  0  0  0  0  0  0  0  0  0  0  0
    0.0206   -0.0973    0.6391 H   0  0  0  0  0  0  0  0  0  0  0  0
   -1.2412   -3.3220   -0.8669 H   0  0  0  0  0  0  0  0  0  0  0  0
    0.3009   -5.0070   -1.7355 H   0  0  0  0  0  0  0  0  0  0  0  0
    2.7675   -4.6737   -1.6457 H   0  0  0  0  0  0  0  0  0  0  0  0
    5.8442   -0.7555    0.4488 H   0  0  0  0  0  0  0  0  0  0  0  0
    3.9913    1.2347    1.8687 H   0  0  0  0  0  0  0  0  0  0  0  0
    4.8120   -0.1295    2.6278 H   0  0  0  0  0  0  0  0  0  0  0  0
    7.0207    0.8428    2.0036 H   0  0  0  0  0  0  0  0  0  0  0  0
    6.0432    2.0263    2.8977 H   0  0  0  0  0  0  0  0  0  0  0  0
    5.8281    2.7019   -1.1468 H   0  0  0  0  0  0  0  0  0  0  0  0
    4.5819   -2.9779    0.0842 H   0  0  0  0  0  0  0  0  0  0  0  0
    4.4517   -2.0737   -1.4748 H   0  0  0  0  0  0  0  0  0  0  0  0
   -4.7906   -0.1833    2.1327 H   0  0  0  0  0  0  0  0  0  0  0  0
  1  2  1  0
  2  3  1  0
  3  4  2  0
  4  5  1  0
  4  6  1  0
  6  7  2  0
  7  8  1  0
  8  9  1  0
  9 10  2  0
  9 11  1  0
 11 12  1  0
 12 13  1  0
 13 14  2  0
 14 15  1  0
 15 16  2  0
 16 17  1  0
 17 18  1  0
 18 19  2  0
 18 20  1  0
 20 21  1  0
 21 22  1  0
 22 23  1  0
 23 24  1  0
 24 25  2  0
 24 26  1  0
 26 27  1  0
 27 28  2  0
 20 29  1  0
  7 30  1  0
 30  2  2  0
 17 12  2  0
 27 21  1  0
 29 16  1  0
  1 31  1  0
  1 32  1  0
  1 33  1  0
  3 34  1  0
  5 35  1  0
  5 36  1  0
  5 37  1  0
  6 38  1  0
  8 39  1  0
  8 40  1  0
 11 41  1  0
 13 42  1  0
 14 43  1  0
 15 44  1  0
 21 45  1  0
 22 46  1  0
 22 47  1  0
 23 48  1  0
 23 49  1  0
 26 50  1  0
 29 51  1  0
 29 52  1  0
 30 53  1  0
M  END
>  <linker>  (38) 
acetamide

>  <mw>  (38) 
405.45

>  <clogp>  (38) 
2.25

>  <tpsa>  (38) 
95.6

>  <cns_mpo_proxy>  (38) 
3.5

>  <qed>  (38) 
0.763

$$$$
GLUE2409
     RDKit          3D

 53 56  0  0  0  0  0  0  0  0999 V2000
    6.8585    0.5115   -1.2865 C   0  0  0  0  0  0  0  0  0  0  0  0
    5.5157    1.0648   -0.9131 C   0  0  0  0  0  0  0  0  0  0  0  0
    4.8931    2.0215   -1.7143 C   0  0  0  0  0  0  0  0  0  0  0  0
    3.6270    2.5047   -1.3804 C   0  0  0  0  0  0  0  0  0  0  0  0
    2.9497    2.0411   -0.2408 C   0  0  0  0  0  0  0  0  0  0  0  0
    1.5832    2.5952    0.0555 C   0  0  0  0  0  0  0  0  0  0  0  0
    3.5615    1.0613    0.5670 C   0  0  0  0  0  0  0  0  0  0  0  0
    2.9042    0.4762    1.7981 C   0  0  0  0  0  0  0  0  0  0  0  0
    2.3977   -0.9428    1.5761 C   0  0  0  0  0  0  0  0  0  0  0  0
    3.1474   -1.9092    1.6923 O   0  0  0  0  0  0  0  0  0  0  0  0
    1.0549   -0.9910    1.2542 N   0  0  0  0  0  0  0  0  0  0  0  0
    0.2732   -2.1285    0.9669 C   0  0  0  0  0  0  0  0  0  0  0  0
    0.7535   -3.4392    0.9309 C   0  0  0  0  0  0  0  0  0  0  0  0
   -0.1037   -4.5175    0.6218 C   0  0  0  0  0  0  0  0  0  0  0  0
   -1.4583   -4.3118    0.3423 C   0  0  0  0  0  0  0  0  0  0  0  0
   -1.9370   -3.0166    0.3837 C   0  0  0  0  0  0  0  0  0  0  0  0
   -1.0780   -1.9605    0.6912 C   0  0  0  0  0  0  0  0  0  0  0  0
   -1.8671   -0.7229    0.6628 C   0  0  0  0  0  0  0  0  0  0  0  0
   -1.3946    0.3883    0.8212 O   0  0  0  0  0  0  0  0  0  0  0  0
   -3.1838   -1.0806    0.4207 N   0  0  0  0  0  0  0  0  0  0  0  0
   -4.2512   -0.1400    0.0955 C   0  0  0  0  0  0  0  0  0  0  0  0
   -4.3642    1.0263    1.0767 C   0  0  0  0  0  0  0  0  0  0  0  0
   -5.5445    1.9009    0.6845 C   0  0  0  0  0  0  0  0  0  0  0  0
   -5.4138    2.3918   -0.7384 C   0  0  0  0  0  0  0  0  0  0  0  0
   -5.9798    3.4068   -1.1347 O   0  0  0  0  0  0  0  0  0  0  0  0
   -4.6928    1.6031   -1.5990 N   0  0  0  0  0  0  0  0  0  0  0  0
   -4.1146    0.3809   -1.3434 C   0  0  0  0  0  0  0  0  0  0  0  0
   -3.6173   -0.2741   -2.2583 O   0  0  0  0  0  0  0  0  0  0  0  0
   -3.3106   -2.5001    0.1196 C   0  0  0  0  0  0  0  0  0  0  0  0
    4.8384    0.5821    0.2121 C   0  0  0  0  0  0  0  0  0  0  0  0
    6.7367   -0.3679   -1.9268 H   0  0  0  0  0  0  0  0  0  0  0  0
    7.4545    1.2588   -1.8211 H   0  0  0  0  0  0  0  0  0  0  0  0
    7.4244    0.2244   -0.3937 H   0  0  0  0  0  0  0  0  0  0  0  0
    5.3868    2.3966   -2.6075 H   0  0  0  0  0  0  0  0  0  0  0  0
    3.1673    3.2504   -2.0260 H   0  0  0  0  0  0  0  0  0  0  0  0
    0.8254    1.8182   -0.0721 H   0  0  0  0  0  0  0  0  0  0  0  0
    1.3288    3.4198   -0.6180 H   0  0  0  0  0  0  0  0  0  0  0  0
    1.5398    2.9929    1.0739 H   0  0  0  0  0  0  0  0  0  0  0  0
    3.6314    0.4479    2.6202 H   0  0  0  0  0  0  0  0  0  0  0  0
    2.0916    1.1087    2.1689 H   0  0  0  0  0  0  0  0  0  0  0  0
    0.5546   -0.1038    1.1923 H   0  0  0  0  0  0  0  0  0  0  0  0
    1.7973   -3.6653    1.1299 H   0  0  0  0  0  0  0  0  0  0  0  0
    0.3061   -5.5262    0.5952 H   0  0  0  0  0  0  0  0  0  0  0  0
   -2.1042   -5.1494    0.0979 H   0  0  0  0  0  0  0  0  0  0  0  0
   -5.1891   -0.7106    0.1319 H   0  0  0  0  0  0  0  0  0  0  0  0
   -3.4579    1.6423    1.0676 H   0  0  0  0  0  0  0  0  0  0  0  0
   -4.4942    0.6545    2.0999 H   0  0  0  0  0  0  0  0  0  0  0  0
   -6.4877    1.3509    0.7715 H   0  0  0  0  0  0  0  0  0  0  0  0
   -5.5888    2.7716    1.3479 H   0  0  0  0  0  0  0  0  0  0  0  0
   -4.6333    1.9288   -2.5540 H   0  0  0  0  0  0  0  0  0  0  0  0
   -4.0548   -2.9406    0.7891 H   0  0  0  0  0  0  0  0  0  0  0  0
   -3.5888   -2.6341   -0.9297 H   0  0  0  0  0  0  0  0  0  0  0  0
    5.3073   -0.1897    0.8235 H   0  0  0  0  0  0  0  0  0  0  0  0
  1  2  1  0
  2  3  1  0
  3  4  2  0
  4  5  1  0
  5  6  1  0
  5  7  2  0
  7  8  1  0
  8  9  1  0
  9 10  2  0
  9 11  1  0
 11 12  1  0
 12 13  1  0
 13 14  2  0
 14 15  1  0
 15 16  2  0
 16 17  1  0
 17 18  1  0
 18 19  2  0
 18 20  1  0
 20 21  1  0
 21 22  1  0
 22 23  1  0
 23 24  1  0
 24 25  2  0
 24 26  1  0
 26 27  1  0
 27 28  2  0
 20 29  1  0
  7 30  1  0
 30  2  2  0
 17 12  2  0
 27 21  1  0
 29 16  1  0
  1 31  1  0
  1 32  1  0
  1 33  1  0
  3 34  1  0
  4 35  1  0
  6 36  1  0
  6 37  1  0
  6 38  1  0
  8 39  1  0
  8 40  1  0
 11 41  1  0
 13 42  1  0
 14 43  1  0
 15 44  1  0
 21 45  1  0
 22 46  1  0
 22 47  1  0
 23 48  1  0
 23 49  1  0
 26 50  1  0
 29 51  1  0
 29 52  1  0
 30 53  1  0
M  END
>  <linker>  (39) 
acetamide

>  <mw>  (39) 
405.45

>  <clogp>  (39) 
2.25

>  <tpsa>  (39) 
95.6

>  <cns_mpo_proxy>  (39) 
3.5

>  <qed>  (39) 
0.763

$$$$
GLUE0107
     RDKit          3D

 51 54  0  0  0  0  0  0  0  0999 V2000
   -3.7189    2.9185   -0.8285 C   0  0  0  0  0  0  0  0  0  0  0  0
   -4.5725    2.0478    0.0455 C   0  0  0  0  0  0  0  0  0  0  0  0
   -5.9356    2.3258    0.1993 C   0  0  0  0  0  0  0  0  0  0  0  0
   -6.7391    1.5117    0.9997 C   0  0  0  0  0  0  0  0  0  0  0  0
   -6.1917    0.4096    1.6591 C   0  0  0  0  0  0  0  0  0  0  0  0
   -4.8322    0.1048    1.5257 C   0  0  0  0  0  0  0  0  0  0  0  0
   -4.2548   -1.0900    2.2251 C   0  0  0  0  0  0  0  0  0  0  0  0
   -4.0474    0.9170    0.6915 C   0  0  0  0  0  0  0  0  0  0  0  0
   -2.6789    0.6359    0.5621 O   0  0  0  0  0  0  0  0  0  0  0  0
   -2.3671   -0.2098   -0.4965 C   0  0  0  0  0  0  0  0  0  0  0  0
   -3.1795   -0.6979   -1.2702 O   0  0  0  0  0  0  0  0  0  0  0  0
   -1.0104   -0.3928   -0.5092 N   0  0  0  0  0  0  0  0  0  0  0  0
   -0.2372   -1.1564   -1.4011 C   0  0  0  0  0  0  0  0  0  0  0  0
   -0.7526   -1.8827   -2.4775 C   0  0  0  0  0  0  0  0  0  0  0  0
    0.0991   -2.6163   -3.3311 C   0  0  0  0  0  0  0  0  0  0  0  0
    1.4827   -2.6406   -3.1303 C   0  0  0  0  0  0  0  0  0  0  0  0
    1.9936   -1.9274   -2.0630 C   0  0  0  0  0  0  0  0  0  0  0  0
    1.1396   -1.2083   -1.2252 C   0  0  0  0  0  0  0  0  0  0  0  0
    1.9653   -0.5634   -0.1972 C   0  0  0  0  0  0  0  0  0  0  0  0
    1.5296    0.1989    0.6458 O   0  0  0  0  0  0  0  0  0  0  0  0
    3.2714   -0.9799   -0.3986 N   0  0  0  0  0  0  0  0  0  0  0  0
    4.4350   -0.3985    0.2635 C   0  0  0  0  0  0  0  0  0  0  0  0
    4.3094   -0.3357    1.7852 C   0  0  0  0  0  0  0  0  0  0  0  0
    5.5953    0.2234    2.3738 C   0  0  0  0  0  0  0  0  0  0  0  0
    5.9195    1.5802    1.7935 C   0  0  0  0  0  0  0  0  0  0  0  0
    6.6256    2.3925    2.3840 O   0  0  0  0  0  0  0  0  0  0  0  0
    5.4531    1.8373    0.5288 N   0  0  0  0  0  0  0  0  0  0  0  0
    4.7624    0.9900   -0.3072 C   0  0  0  0  0  0  0  0  0  0  0  0
    4.5272    1.3187   -1.4692 O   0  0  0  0  0  0  0  0  0  0  0  0
    3.4080   -1.7555   -1.6233 C   0  0  0  0  0  0  0  0  0  0  0  0
   -3.5084    2.4112   -1.7751 H   0  0  0  0  0  0  0  0  0  0  0  0
   -2.7748    3.1603   -0.3296 H   0  0  0  0  0  0  0  0  0  0  0  0
   -4.2171    3.8677   -1.0526 H   0  0  0  0  0  0  0  0  0  0  0  0
   -6.3834    3.1789   -0.3053 H   0  0  0  0  0  0  0  0  0  0  0  0
   -7.7971    1.7366    1.1091 H   0  0  0  0  0  0  0  0  0  0  0  0
   -6.8367   -0.2109    2.2771 H   0  0  0  0  0  0  0  0  0  0  0  0
   -3.3086   -0.8333    2.7124 H   0  0  0  0  0  0  0  0  0  0  0  0
   -4.0848   -1.9001    1.5091 H   0  0  0  0  0  0  0  0  0  0  0  0
   -4.9291   -1.4591    3.0052 H   0  0  0  0  0  0  0  0  0  0  0  0
   -0.5059    0.1045    0.2234 H   0  0  0  0  0  0  0  0  0  0  0  0
   -1.8181   -1.9006   -2.6915 H   0  0  0  0  0  0  0  0  0  0  0  0
   -0.3351   -3.1674   -4.1637 H   0  0  0  0  0  0  0  0  0  0  0  0
    2.1274   -3.2014   -3.8000 H   0  0  0  0  0  0  0  0  0  0  0  0
    5.2881   -1.0450    0.0163 H   0  0  0  0  0  0  0  0  0  0  0  0
    4.1116   -1.3333    2.1938 H   0  0  0  0  0  0  0  0  0  0  0  0
    3.4784    0.3103    2.0896 H   0  0  0  0  0  0  0  0  0  0  0  0
    5.4839    0.3283    3.4584 H   0  0  0  0  0  0  0  0  0  0  0  0
    6.4405   -0.4449    2.1765 H   0  0  0  0  0  0  0  0  0  0  0  0
    5.6971    2.7386    0.1415 H   0  0  0  0  0  0  0  0  0  0  0  0
    3.8890   -2.7091   -1.3893 H   0  0  0  0  0  0  0  0  0  0  0  0
    3.9844   -1.1885   -2.3597 H   0  0  0  0  0  0  0  0  0  0  0  0
  1  2  1  0
  2  3  1  0
  3  4  2  0
  4  5  1  0
  5  6  2  0
  6  7  1  0
  6  8  1  0
  8  9  1  0
  9 10  1  0
 10 11  2  0
 10 12  1  0
 12 13  1  0
 13 14  1  0
 14 15  2  0
 15 16  1  0
 16 17  2  0
 17 18  1  0
 18 19  1  0
 19 20  2  0
 19 21  1  0
 21 22  1  0
 22 23  1  0
 23 24  1  0
 24 25  1  0
 25 26  2  0
 25 27  1  0
 27 28  1  0
 28 29  2  0
 21 30  1  0
  8  2  2  0
 18 13  2  0
 28 22  1  0
 30 17  1  0
  1 31  1  0
  1 32  1  0
  1 33  1  0
  3 34  1  0
  4 35  1  0
  5 36  1  0
  7 37  1  0
  7 38  1  0
  7 39  1  0
 12 40  1  0
 14 41  1  0
 15 42  1  0
 16 43  1  0
 22 44  1  0
 23 45  1  0
 23 46  1  0
 24 47  1  0
 24 48  1  0
 27 49  1  0
 30 50  1  0
 30 51  1  0
M  END
>  <linker>  (40) 
carbamate

>  <mw>  (40) 
407.43

>  <clogp>  (40) 
2.68

>  <tpsa>  (40) 
104.8

>  <cns_mpo_proxy>  (40) 
3.5

>  <qed>  (40) 
0.761

$$$$
GLUE0429
     RDKit          3D

 51 54  0  0  0  0  0  0  0  0999 V2000
    8.4029   -1.1517    0.8645 C   0  0  0  0  0  0  0  0  0  0  0  0
    6.9119   -1.0219    0.7562 C   0  0  0  0  0  0  0  0  0  0  0  0
    6.1759   -0.4388    1.7956 C   0  0  0  0  0  0  0  0  0  0  0  0
    4.7885   -0.3397    1.7061 C   0  0  0  0  0  0  0  0  0  0  0  0
    4.1390   -0.8259    0.5715 C   0  0  0  0  0  0  0  0  0  0  0  0
    2.7418   -0.7574    0.5205 O   0  0  0  0  0  0  0  0  0  0  0  0
    2.2478    0.4567    0.0571 C   0  0  0  0  0  0  0  0  0  0  0  0
    2.9334    1.4080   -0.2924 O   0  0  0  0  0  0  0  0  0  0  0  0
    0.8803    0.3890    0.0585 N   0  0  0  0  0  0  0  0  0  0  0  0
   -0.0465    1.3758   -0.3206 C   0  0  0  0  0  0  0  0  0  0  0  0
    0.2935    2.6531   -0.7729 C   0  0  0  0  0  0  0  0  0  0  0  0
   -0.7045    3.5867   -1.1261 C   0  0  0  0  0  0  0  0  0  0  0  0
   -2.0628    3.2668   -1.0355 C   0  0  0  0  0  0  0  0  0  0  0  0
   -2.4011    2.0026   -0.5922 C   0  0  0  0  0  0  0  0  0  0  0  0
   -1.4036    1.0889   -0.2481 C   0  0  0  0  0  0  0  0  0  0  0  0
   -2.0636   -0.1498    0.1791 C   0  0  0  0  0  0  0  0  0  0  0  0
   -1.4732   -1.1371    0.5776 O   0  0  0  0  0  0  0  0  0  0  0  0
   -3.4301    0.0375    0.0285 N   0  0  0  0  0  0  0  0  0  0  0  0
   -4.4083   -0.8990    0.5798 C   0  0  0  0  0  0  0  0  0  0  0  0
   -5.4701   -1.3318   -0.4320 C   0  0  0  0  0  0  0  0  0  0  0  0
   -6.6828   -0.4173   -0.4258 C   0  0  0  0  0  0  0  0  0  0  0  0
   -7.2385   -0.2408    0.9661 C   0  0  0  0  0  0  0  0  0  0  0  0
   -8.3706    0.1898    1.1651 O   0  0  0  0  0  0  0  0  0  0  0  0
   -6.3795   -0.4709    2.0059 N   0  0  0  0  0  0  0  0  0  0  0  0
   -5.0189   -0.3567    1.8840 C   0  0  0  0  0  0  0  0  0  0  0  0
   -4.3621    0.1871    2.7690 O   0  0  0  0  0  0  0  0  0  0  0  0
   -3.7486    1.3961   -0.3881 C   0  0  0  0  0  0  0  0  0  0  0  0
    4.8409   -1.4507   -0.4657 C   0  0  0  0  0  0  0  0  0  0  0  0
    4.1320   -1.9896   -1.6720 C   0  0  0  0  0  0  0  0  0  0  0  0
    6.2365   -1.5350   -0.3629 C   0  0  0  0  0  0  0  0  0  0  0  0
    8.8714   -1.1067   -0.1243 H   0  0  0  0  0  0  0  0  0  0  0  0
    8.8244   -0.3352    1.4603 H   0  0  0  0  0  0  0  0  0  0  0  0
    8.6619   -2.1044    1.3366 H   0  0  0  0  0  0  0  0  0  0  0  0
    6.6803   -0.0552    2.6792 H   0  0  0  0  0  0  0  0  0  0  0  0
    4.2212    0.1168    2.5113 H   0  0  0  0  0  0  0  0  0  0  0  0
    0.4966   -0.4967    0.3863 H   0  0  0  0  0  0  0  0  0  0  0  0
    1.3308    2.9658   -0.8618 H   0  0  0  0  0  0  0  0  0  0  0  0
   -0.4044    4.5749   -1.4711 H   0  0  0  0  0  0  0  0  0  0  0  0
   -2.8196    3.9971   -1.3048 H   0  0  0  0  0  0  0  0  0  0  0  0
   -3.8588   -1.8038    0.8711 H   0  0  0  0  0  0  0  0  0  0  0  0
   -5.8081   -2.3424   -0.1646 H   0  0  0  0  0  0  0  0  0  0  0  0
   -5.0490   -1.3987   -1.4418 H   0  0  0  0  0  0  0  0  0  0  0  0
   -7.4670   -0.8517   -1.0555 H   0  0  0  0  0  0  0  0  0  0  0  0
   -6.4401    0.5727   -0.8221 H   0  0  0  0  0  0  0  0  0  0  0  0
   -6.7416   -0.1348    2.8898 H   0  0  0  0  0  0  0  0  0  0  0  0
   -4.2977    1.9122    0.4042 H   0  0  0  0  0  0  0  0  0  0  0  0
   -4.3189    1.3633   -1.3195 H   0  0  0  0  0  0  0  0  0  0  0  0
    4.8054   -2.5814   -2.3009 H   0  0  0  0  0  0  0  0  0  0  0  0
    3.7388   -1.1665   -2.2769 H   0  0  0  0  0  0  0  0  0  0  0  0
    3.3073   -2.6443   -1.3720 H   0  0  0  0  0  0  0  0  0  0  0  0
    6.8075   -2.0051   -1.1615 H   0  0  0  0  0  0  0  0  0  0  0  0
  1  2  1  0
  2  3  1  0
  3  4  2  0
  4  5  1  0
  5  6  1  0
  6  7  1  0
  7  8  2  0
  7  9  1  0
  9 10  1  0
 10 11  1  0
 11 12  2  0
 12 13  1  0
 13 14  2  0
 14 15  1  0
 15 16  1  0
 16 17  2  0
 16 18  1  0
 18 19  1  0
 19 20  1  0
 20 21  1  0
 21 22  1  0
 22 23  2  0
 22 24  1  0
 24 25  1  0
 25 26  2  0
 18 27  1  0
  5 28  2  0
 28 29  1  0
 28 30  1  0
 30  2  2  0
 15 10  2  0
 25 19  1  0
 27 14  1  0
  1 31  1  0
  1 32  1  0
  1 33  1  0
  3 34  1  0
  4 35  1  0
  9 36  1  0
 11 37  1  0
 12 38  1  0
 13 39  1  0
 19 40  1  0
 20 41  1  0
 20 42  1  0
 21 43  1  0
 21 44  1  0
 24 45  1  0
 27 46  1  0
 27 47  1  0
 29 48  1  0
 29 49  1  0
 29 50  1  0
 30 51  1  0
M  END
>  <linker>  (41) 
carbamate

>  <mw>  (41) 
407.43

>  <clogp>  (41) 
2.68

>  <tpsa>  (41) 
104.8

>  <cns_mpo_proxy>  (41) 
3.5

>  <qed>  (41) 
0.761

$$$$
GLUE0601
     RDKit          3D

 51 54  0  0  0  0  0  0  0  0999 V2000
    6.7465   -0.1732   -2.6261 C   0  0  0  0  0  0  0  0  0  0  0  0
    6.0372    0.4642   -1.4620 C   0  0  0  0  0  0  0  0  0  0  0  0
    6.7970    1.1616   -0.5051 C   0  0  0  0  0  0  0  0  0  0  0  0
    6.1894    1.7713    0.5934 C   0  0  0  0  0  0  0  0  0  0  0  0
    4.8121    1.6887    0.7557 C   0  0  0  0  0  0  0  0  0  0  0  0
    4.0552    0.9913   -0.1862 C   0  0  0  0  0  0  0  0  0  0  0  0
    2.6651    0.9564   -0.0121 O   0  0  0  0  0  0  0  0  0  0  0  0
    2.2207   -0.0677    0.8159 C   0  0  0  0  0  0  0  0  0  0  0  0
    2.9404   -0.8840    1.3743 O   0  0  0  0  0  0  0  0  0  0  0  0
    0.8550    0.0036    0.8846 N   0  0  0  0  0  0  0  0  0  0  0  0
   -0.0307   -0.8157    1.6064 C   0  0  0  0  0  0  0  0  0  0  0  0
    0.3585   -1.8805    2.4225 C   0  0  0  0  0  0  0  0  0  0  0  0
   -0.6002   -2.6470    3.1196 C   0  0  0  0  0  0  0  0  0  0  0  0
   -1.9666   -2.3665    3.0197 C   0  0  0  0  0  0  0  0  0  0  0  0
   -2.3534   -1.3176    2.2078 C   0  0  0  0  0  0  0  0  0  0  0  0
   -1.3955   -0.5707    1.5221 C   0  0  0  0  0  0  0  0  0  0  0  0
   -2.1039    0.4546    0.7487 C   0  0  0  0  0  0  0  0  0  0  0  0
   -1.5476    1.3211    0.0997 O   0  0  0  0  0  0  0  0  0  0  0  0
   -3.4649    0.2344    0.9126 N   0  0  0  0  0  0  0  0  0  0  0  0
   -4.4820    1.1913    0.4615 C   0  0  0  0  0  0  0  0  0  0  0  0
   -4.4646    1.4124   -1.0560 C   0  0  0  0  0  0  0  0  0  0  0  0
   -4.9295    0.1570   -1.7781 C   0  0  0  0  0  0  0  0  0  0  0  0
   -6.2961   -0.2683   -1.3014 C   0  0  0  0  0  0  0  0  0  0  0  0
   -7.0101   -1.0296   -1.9479 O   0  0  0  0  0  0  0  0  0  0  0  0
   -6.6875    0.1821   -0.0669 N   0  0  0  0  0  0  0  0  0  0  0  0
   -5.9046    0.7913    0.8844 C   0  0  0  0  0  0  0  0  0  0  0  0
   -6.2997    0.8720    2.0470 O   0  0  0  0  0  0  0  0  0  0  0  0
   -3.7174   -0.7788    1.9346 C   0  0  0  0  0  0  0  0  0  0  0  0
    4.6345    0.4019   -1.3230 C   0  0  0  0  0  0  0  0  0  0  0  0
    3.7787   -0.3317   -2.3188 C   0  0  0  0  0  0  0  0  0  0  0  0
    6.5513    0.3934   -3.5422 H   0  0  0  0  0  0  0  0  0  0  0  0
    6.4175   -1.2092   -2.7586 H   0  0  0  0  0  0  0  0  0  0  0  0
    7.8304   -0.1993   -2.4687 H   0  0  0  0  0  0  0  0  0  0  0  0
    7.8780    1.2305   -0.6098 H   0  0  0  0  0  0  0  0  0  0  0  0
    6.7929    2.3034    1.3232 H   0  0  0  0  0  0  0  0  0  0  0  0
    4.3332    2.1548    1.6109 H   0  0  0  0  0  0  0  0  0  0  0  0
    0.4398    0.7571    0.3387 H   0  0  0  0  0  0  0  0  0  0  0  0
    1.4049   -2.1473    2.5465 H   0  0  0  0  0  0  0  0  0  0  0  0
   -0.2628   -3.4688    3.7495 H   0  0  0  0  0  0  0  0  0  0  0  0
   -2.6930   -2.9584    3.5686 H   0  0  0  0  0  0  0  0  0  0  0  0
   -4.2560    2.1488    0.9478 H   0  0  0  0  0  0  0  0  0  0  0  0
   -5.1393    2.2426   -1.3058 H   0  0  0  0  0  0  0  0  0  0  0  0
   -3.4721    1.6964   -1.4179 H   0  0  0  0  0  0  0  0  0  0  0  0
   -4.2344   -0.6748   -1.6212 H   0  0  0  0  0  0  0  0  0  0  0  0
   -4.9887    0.3581   -2.8534 H   0  0  0  0  0  0  0  0  0  0  0  0
   -7.5874   -0.1510    0.2525 H   0  0  0  0  0  0  0  0  0  0  0  0
   -4.1221   -0.3041    2.8330 H   0  0  0  0  0  0  0  0  0  0  0  0
   -4.3905   -1.5410    1.5332 H   0  0  0  0  0  0  0  0  0  0  0  0
    3.7464   -1.3961   -2.0686 H   0  0  0  0  0  0  0  0  0  0  0  0
    4.1611   -0.2144   -3.3370 H   0  0  0  0  0  0  0  0  0  0  0  0
    2.7549    0.0553   -2.3349 H   0  0  0  0  0  0  0  0  0  0  0  0
  1  2  1  0
  2  3  2  0
  3  4  1  0
  4  5  2  0
  5  6  1  0
  6  7  1  0
  7  8  1  0
  8  9  2  0
  8 10  1  0
 10 11  1  0
 11 12  1  0
 12 13  2  0
 13 14  1  0
 14 15  2  0
 15 16  1  0
 16 17  1  0
 17 18  2  0
 17 19  1  0
 19 20  1  0
 20 21  1  0
 21 22  1  0
 22 23  1  0
 23 24  2  0
 23 25  1  0
 25 26  1  0
 26 27  2  0
 19 28  1  0
  6 29  2  0
 29 30  1  0
 29  2  1  0
 16 11  2  0
 26 20  1  0
 28 15  1  0
  1 31  1  0
  1 32  1  0
  1 33  1  0
  3 34  1  0
  4 35  1  0
  5 36  1  0
 10 37  1  0
 12 38  1  0
 13 39  1  0
 14 40  1  0
 20 41  1  0
 21 42  1  0
 21 43  1  0
 22 44  1  0
 22 45  1  0
 25 46  1  0
 28 47  1  0
 28 48  1  0
 30 49  1  0
 30 50  1  0
 30 51  1  0
M  END
>  <linker>  (42) 
carbamate

>  <mw>  (42) 
407.43

>  <clogp>  (42) 
2.68

>  <tpsa>  (42) 
104.8

>  <cns_mpo_proxy>  (42) 
3.5

>  <qed>  (42) 
0.761

$$$$
GLUE1233
     RDKit          3D

 51 54  0  0  0  0  0  0  0  0999 V2000
    7.8335   -0.4107    1.6808 C   0  0  0  0  0  0  0  0  0  0  0  0
    6.3536   -0.3216    1.4237 C   0  0  0  0  0  0  0  0  0  0  0  0
    5.6885    0.8944    1.6618 C   0  0  0  0  0  0  0  0  0  0  0  0
    4.3190    1.0159    1.4325 C   0  0  0  0  0  0  0  0  0  0  0  0
    3.6159   -0.0813    0.9503 C   0  0  0  0  0  0  0  0  0  0  0  0
    2.2350    0.0166    0.7658 O   0  0  0  0  0  0  0  0  0  0  0  0
    1.8644    0.4599   -0.4988 C   0  0  0  0  0  0  0  0  0  0  0  0
    2.6414    0.7539   -1.3970 O   0  0  0  0  0  0  0  0  0  0  0  0
    0.4969    0.5082   -0.5497 N   0  0  0  0  0  0  0  0  0  0  0  0
   -0.3277    0.8853   -1.6244 C   0  0  0  0  0  0  0  0  0  0  0  0
    0.1374    1.2836   -2.8802 C   0  0  0  0  0  0  0  0  0  0  0  0
   -0.7631    1.6375   -3.9079 C   0  0  0  0  0  0  0  0  0  0  0  0
   -2.1462    1.6009   -3.7059 C   0  0  0  0  0  0  0  0  0  0  0  0
   -2.6078    1.2125   -2.4630 C   0  0  0  0  0  0  0  0  0  0  0  0
   -1.7062    0.8675   -1.4548 C   0  0  0  0  0  0  0  0  0  0  0  0
   -2.4870    0.5039   -0.2663 C   0  0  0  0  0  0  0  0  0  0  0  0
   -1.9984    0.0825    0.7659 O   0  0  0  0  0  0  0  0  0  0  0  0
   -3.8216    0.7207   -0.5694 N   0  0  0  0  0  0  0  0  0  0  0  0
   -4.9392    0.2743    0.2564 C   0  0  0  0  0  0  0  0  0  0  0  0
   -4.8301    0.6983    1.7206 C   0  0  0  0  0  0  0  0  0  0  0  0
   -6.0705    0.2395    2.4713 C   0  0  0  0  0  0  0  0  0  0  0  0
   -6.2668   -1.2533    2.3456 C   0  0  0  0  0  0  0  0  0  0  0  0
   -6.9080   -1.9004    3.1684 O   0  0  0  0  0  0  0  0  0  0  0  0
   -5.7614   -1.8487    1.2171 N   0  0  0  0  0  0  0  0  0  0  0  0
   -5.1362   -1.2458    0.1497 C   0  0  0  0  0  0  0  0  0  0  0  0
   -4.8576   -1.8971   -0.8563 O   0  0  0  0  0  0  0  0  0  0  0  0
   -4.0079    1.0621   -1.9725 C   0  0  0  0  0  0  0  0  0  0  0  0
    4.2446   -1.3035    0.7233 C   0  0  0  0  0  0  0  0  0  0  0  0
    5.6226   -1.4343    0.9521 C   0  0  0  0  0  0  0  0  0  0  0  0
    6.2894   -2.7561    0.6871 C   0  0  0  0  0  0  0  0  0  0  0  0
    8.2395    0.5449    2.0293 H   0  0  0  0  0  0  0  0  0  0  0  0
    8.3641   -0.6772    0.7613 H   0  0  0  0  0  0  0  0  0  0  0  0
    8.0405   -1.1582    2.4530 H   0  0  0  0  0  0  0  0  0  0  0  0
    6.2380    1.7585    2.0289 H   0  0  0  0  0  0  0  0  0  0  0  0
    3.8127    1.9566    1.6230 H   0  0  0  0  0  0  0  0  0  0  0  0
    0.0270    0.2208    0.3077 H   0  0  0  0  0  0  0  0  0  0  0  0
    1.2002    1.3280   -3.1037 H   0  0  0  0  0  0  0  0  0  0  0  0
   -0.3669    1.9386   -4.8764 H   0  0  0  0  0  0  0  0  0  0  0  0
   -2.8279    1.8668   -4.5078 H   0  0  0  0  0  0  0  0  0  0  0  0
   -5.8418    0.7350   -0.1676 H   0  0  0  0  0  0  0  0  0  0  0  0
   -4.7260    1.7868    1.7964 H   0  0  0  0  0  0  0  0  0  0  0  0
   -3.9504    0.2541    2.1991 H   0  0  0  0  0  0  0  0  0  0  0  0
   -5.9658    0.4869    3.5331 H   0  0  0  0  0  0  0  0  0  0  0  0
   -6.9680    0.7370    2.0877 H   0  0  0  0  0  0  0  0  0  0  0  0
   -5.9204   -2.8433    1.1321 H   0  0  0  0  0  0  0  0  0  0  0  0
   -4.5741    1.9950   -2.0401 H   0  0  0  0  0  0  0  0  0  0  0  0
   -4.5215    0.2459   -2.4883 H   0  0  0  0  0  0  0  0  0  0  0  0
    3.6600   -2.1463    0.3650 H   0  0  0  0  0  0  0  0  0  0  0  0
    7.0549   -2.6470   -0.0876 H   0  0  0  0  0  0  0  0  0  0  0  0
    5.5715   -3.5060    0.3382 H   0  0  0  0  0  0  0  0  0  0  0  0
    6.7480   -3.1415    1.6032 H   0  0  0  0  0  0  0  0  0  0  0  0
  1  2  1  0
  2  3  1  0
  3  4  2  0
  4  5  1  0
  5  6  1  0
  6  7  1  0
  7  8  2  0
  7  9  1  0
  9 10  1  0
 10 11  1  0
 11 12  2  0
 12 13  1  0
 13 14  2  0
 14 15  1  0
 15 16  1  0
 16 17  2  0
 16 18  1  0
 18 19  1  0
 19 20  1  0
 20 21  1  0
 21 22  1  0
 22 23  2  0
 22 24  1  0
 24 25  1  0
 25 26  2  0
 18 27  1  0
  5 28  2  0
 28 29  1  0
 29 30  1  0
 29  2  2  0
 15 10  2  0
 25 19  1  0
 27 14  1  0
  1 31  1  0
  1 32  1  0
  1 33  1  0
  3 34  1  0
  4 35  1  0
  9 36  1  0
 11 37  1  0
 12 38  1  0
 13 39  1  0
 19 40  1  0
 20 41  1  0
 20 42  1  0
 21 43  1  0
 21 44  1  0
 24 45  1  0
 27 46  1  0
 27 47  1  0
 28 48  1  0
 30 49  1  0
 30 50  1  0
 30 51  1  0
M  END
>  <linker>  (43) 
carbamate

>  <mw>  (43) 
407.43

>  <clogp>  (43) 
2.68

>  <tpsa>  (43) 
104.8

>  <cns_mpo_proxy>  (43) 
3.5

>  <qed>  (43) 
0.761

$$$$
GLUE2040
     RDKit          3D

 51 54  0  0  0  0  0  0  0  0999 V2000
   -6.1322    2.8375   -2.2347 C   0  0  0  0  0  0  0  0  0  0  0  0
   -5.6233    1.5323   -1.6990 C   0  0  0  0  0  0  0  0  0  0  0  0
   -6.5185    0.4986   -1.3821 C   0  0  0  0  0  0  0  0  0  0  0  0
   -6.0617   -0.7230   -0.8622 C   0  0  0  0  0  0  0  0  0  0  0  0
   -7.0383   -1.8063   -0.5130 C   0  0  0  0  0  0  0  0  0  0  0  0
   -4.6944   -0.8937   -0.6243 C   0  0  0  0  0  0  0  0  0  0  0  0
   -3.8129    0.1479   -0.9093 C   0  0  0  0  0  0  0  0  0  0  0  0
   -2.4359   -0.0237   -0.7306 O   0  0  0  0  0  0  0  0  0  0  0  0
   -2.0086   -0.0199    0.5930 C   0  0  0  0  0  0  0  0  0  0  0  0
   -2.7337    0.1360    1.5660 O   0  0  0  0  0  0  0  0  0  0  0  0
   -0.6534   -0.2157    0.6032 N   0  0  0  0  0  0  0  0  0  0  0  0
    0.2133   -0.2922    1.7079 C   0  0  0  0  0  0  0  0  0  0  0  0
   -0.1887   -0.1860    3.0416 C   0  0  0  0  0  0  0  0  0  0  0  0
    0.7503   -0.2824    4.0912 C   0  0  0  0  0  0  0  0  0  0  0  0
    2.1091   -0.4886    3.8333 C   0  0  0  0  0  0  0  0  0  0  0  0
    2.5089   -0.5872    2.5145 C   0  0  0  0  0  0  0  0  0  0  0  0
    1.5708   -0.4875    1.4871 C   0  0  0  0  0  0  0  0  0  0  0  0
    2.2902   -0.6240    0.2158 C   0  0  0  0  0  0  0  0  0  0  0  0
    1.7447   -0.6643   -0.8718 O   0  0  0  0  0  0  0  0  0  0  0  0
    3.6453   -0.6971    0.5093 N   0  0  0  0  0  0  0  0  0  0  0  0
    4.6573   -1.0532   -0.4926 C   0  0  0  0  0  0  0  0  0  0  0  0
    4.7102   -0.0708   -1.6695 C   0  0  0  0  0  0  0  0  0  0  0  0
    5.2240    1.2830   -1.2038 C   0  0  0  0  0  0  0  0  0  0  0  0
    6.5691    1.1517   -0.5337 C   0  0  0  0  0  0  0  0  0  0  0  0
    7.3162    2.1107   -0.3631 O   0  0  0  0  0  0  0  0  0  0  0  0
    6.9015   -0.0898   -0.0544 N   0  0  0  0  0  0  0  0  0  0  0  0
    6.0673   -1.1699    0.1084 C   0  0  0  0  0  0  0  0  0  0  0  0
    6.4083   -2.1094    0.8258 O   0  0  0  0  0  0  0  0  0  0  0  0
    3.8674   -0.8289    1.9479 C   0  0  0  0  0  0  0  0  0  0  0  0
   -4.2586    1.3499   -1.4548 C   0  0  0  0  0  0  0  0  0  0  0  0
   -5.3746    3.3291   -2.8540 H   0  0  0  0  0  0  0  0  0  0  0  0
   -7.0147    2.6823   -2.8641 H   0  0  0  0  0  0  0  0  0  0  0  0
   -6.3985    3.5029   -1.4078 H   0  0  0  0  0  0  0  0  0  0  0  0
   -7.5851    0.6450   -1.5446 H   0  0  0  0  0  0  0  0  0  0  0  0
   -7.8333   -1.8650   -1.2635 H   0  0  0  0  0  0  0  0  0  0  0  0
   -7.4850   -1.6063    0.4655 H   0  0  0  0  0  0  0  0  0  0  0  0
   -6.5485   -2.7851   -0.4813 H   0  0  0  0  0  0  0  0  0  0  0  0
   -4.3172   -1.8245   -0.2109 H   0  0  0  0  0  0  0  0  0  0  0  0
   -0.2315   -0.3232   -0.3185 H   0  0  0  0  0  0  0  0  0  0  0  0
   -1.2304   -0.0291    3.3095 H   0  0  0  0  0  0  0  0  0  0  0  0
    0.4030   -0.1978    5.1197 H   0  0  0  0  0  0  0  0  0  0  0  0
    2.8196   -0.5698    4.6502 H   0  0  0  0  0  0  0  0  0  0  0  0
    4.3860   -2.0419   -0.8836 H   0  0  0  0  0  0  0  0  0  0  0  0
    3.7336    0.0510   -2.1466 H   0  0  0  0  0  0  0  0  0  0  0  0
    5.3867   -0.4674   -2.4384 H   0  0  0  0  0  0  0  0  0  0  0  0
    5.3340    1.9464   -2.0682 H   0  0  0  0  0  0  0  0  0  0  0  0
    4.5309    1.7511   -0.4967 H   0  0  0  0  0  0  0  0  0  0  0  0
    7.7887   -0.1451    0.4276 H   0  0  0  0  0  0  0  0  0  0  0  0
    4.1971   -1.8460    2.1778 H   0  0  0  0  0  0  0  0  0  0  0  0
    4.5909   -0.0777    2.2751 H   0  0  0  0  0  0  0  0  0  0  0  0
   -3.5454    2.1373   -1.6806 H   0  0  0  0  0  0  0  0  0  0  0  0
  1  2  1  0
  2  3  1  0
  3  4  2  0
  4  5  1  0
  4  6  1  0
  6  7  2  0
  7  8  1  0
  8  9  1  0
  9 10  2  0
  9 11  1  0
 11 12  1  0
 12 13  1  0
 13 14  2  0
 14 15  1  0
 15 16  2  0
 16 17  1  0
 17 18  1  0
 18 19  2  0
 18 20  1  0
 20 21  1  0
 21 22  1  0
 22 23  1  0
 23 24  1  0
 24 25  2  0
 24 26  1  0
 26 27  1  0
 27 28  2  0
 20 29  1  0
  7 30  1  0
 30  2  2  0
 17 12  2  0
 27 21  1  0
 29 16  1  0
  1 31  1  0
  1 32  1  0
  1 33  1  0
  3 34  1  0
  5 35  1  0
  5 36  1  0
  5 37  1  0
  6 38  1  0
 11 39  1  0
 13 40  1  0
 14 41  1  0
 15 42  1  0
 21 43  1  0
 22 44  1  0
 22 45  1  0
 23 46  1  0
 23 47  1  0
 26 48  1  0
 29 49  1  0
 29 50  1  0
 30 51  1  0
M  END
>  <linker>  (44) 
carbamate

>  <mw>  (44) 
407.43

>  <clogp>  (44) 
2.68

>  <tpsa>  (44) 
104.8

>  <cns_mpo_proxy>  (44) 
3.5

>  <qed>  (44) 
0.761

$$$$
GLUE2411
     RDKit          3D

 51 54  0  0  0  0  0  0  0  0999 V2000
    6.6082    2.7721   -1.1152 C   0  0  0  0  0  0  0  0  0  0  0  0
    5.9698    1.4172   -1.1878 C   0  0  0  0  0  0  0  0  0  0  0  0
    6.7499    0.2747   -1.4104 C   0  0  0  0  0  0  0  0  0  0  0  0
    6.1638   -0.9962   -1.4488 C   0  0  0  0  0  0  0  0  0  0  0  0
    4.7865   -1.1523   -1.2545 C   0  0  0  0  0  0  0  0  0  0  0  0
    4.1604   -2.5140   -1.2872 C   0  0  0  0  0  0  0  0  0  0  0  0
    4.0246   -0.0063   -0.9944 C   0  0  0  0  0  0  0  0  0  0  0  0
    2.6385   -0.1220   -0.8257 O   0  0  0  0  0  0  0  0  0  0  0  0
    2.2214   -0.1093    0.5004 C   0  0  0  0  0  0  0  0  0  0  0  0
    2.9609   -0.0114    1.4700 O   0  0  0  0  0  0  0  0  0  0  0  0
    0.8573   -0.2264    0.5189 N   0  0  0  0  0  0  0  0  0  0  0  0
   -0.0030   -0.2705    1.6305 C   0  0  0  0  0  0  0  0  0  0  0  0
    0.4148   -0.1948    2.9619 C   0  0  0  0  0  0  0  0  0  0  0  0
   -0.5183   -0.2540    4.0191 C   0  0  0  0  0  0  0  0  0  0  0  0
   -1.8871   -0.3940    3.7717 C   0  0  0  0  0  0  0  0  0  0  0  0
   -2.3024   -0.4645    2.4557 C   0  0  0  0  0  0  0  0  0  0  0  0
   -1.3697   -0.3997    1.4201 C   0  0  0  0  0  0  0  0  0  0  0  0
   -2.1056   -0.4944    0.1544 C   0  0  0  0  0  0  0  0  0  0  0  0
   -1.5761   -0.5372   -0.9406 O   0  0  0  0  0  0  0  0  0  0  0  0
   -3.4585   -0.5245    0.4619 N   0  0  0  0  0  0  0  0  0  0  0  0
   -4.4933   -0.8076   -0.5390 C   0  0  0  0  0  0  0  0  0  0  0  0
   -4.5627    0.2602   -1.6382 C   0  0  0  0  0  0  0  0  0  0  0  0
   -5.0900    1.5696   -1.0695 C   0  0  0  0  0  0  0  0  0  0  0  0
   -6.4283    1.3713   -0.4004 C   0  0  0  0  0  0  0  0  0  0  0  0
   -7.1792    2.3069   -0.1377 O   0  0  0  0  0  0  0  0  0  0  0  0
   -6.7481    0.0913   -0.0248 N   0  0  0  0  0  0  0  0  0  0  0  0
   -5.8916   -0.9788    0.0751 C   0  0  0  0  0  0  0  0  0  0  0  0
   -6.2047   -1.9565    0.7538 O   0  0  0  0  0  0  0  0  0  0  0  0
   -3.6759   -0.6433    1.9011 C   0  0  0  0  0  0  0  0  0  0  0  0
    4.5960    1.2687   -0.9737 C   0  0  0  0  0  0  0  0  0  0  0  0
    5.9089    3.5516   -1.4338 H   0  0  0  0  0  0  0  0  0  0  0  0
    6.9272    2.9813   -0.0897 H   0  0  0  0  0  0  0  0  0  0  0  0
    7.4795    2.8287   -1.7751 H   0  0  0  0  0  0  0  0  0  0  0  0
    7.8243    0.3663   -1.5576 H   0  0  0  0  0  0  0  0  0  0  0  0
    6.7961   -1.8628   -1.6313 H   0  0  0  0  0  0  0  0  0  0  0  0
    3.8386   -2.8061   -0.2816 H   0  0  0  0  0  0  0  0  0  0  0  0
    4.8650   -3.2706   -1.6519 H   0  0  0  0  0  0  0  0  0  0  0  0
    3.2967   -2.5219   -1.9603 H   0  0  0  0  0  0  0  0  0  0  0  0
    0.4234   -0.3013   -0.4003 H   0  0  0  0  0  0  0  0  0  0  0  0
    1.4648   -0.0911    3.2223 H   0  0  0  0  0  0  0  0  0  0  0  0
   -0.1586   -0.1945    5.0455 H   0  0  0  0  0  0  0  0  0  0  0  0
   -2.5937   -0.4483    4.5945 H   0  0  0  0  0  0  0  0  0  0  0  0
   -4.2269   -1.7626   -1.0108 H   0  0  0  0  0  0  0  0  0  0  0  0
   -3.5875    0.4282   -2.1065 H   0  0  0  0  0  0  0  0  0  0  0  0
   -5.2382   -0.0854   -2.4330 H   0  0  0  0  0  0  0  0  0  0  0  0
   -5.2150    2.2936   -1.8828 H   0  0  0  0  0  0  0  0  0  0  0  0
   -4.3966    1.9932   -0.3348 H   0  0  0  0  0  0  0  0  0  0  0  0
   -7.6260   -0.0068    0.4679 H   0  0  0  0  0  0  0  0  0  0  0  0
   -4.0496   -1.6435    2.1367 H   0  0  0  0  0  0  0  0  0  0  0  0
   -4.3612    0.1411    2.2319 H   0  0  0  0  0  0  0  0  0  0  0  0
    3.9710    2.1371   -0.7831 H   0  0  0  0  0  0  0  0  0  0  0  0
  1  2  1  0
  2  3  1  0
  3  4  2  0
  4  5  1  0
  5  6  1  0
  5  7  2  0
  7  8  1  0
  8  9  1  0
  9 10  2  0
  9 11  1  0
 11 12  1  0
 12 13  1  0
 13 14  2  0
 14 15  1  0
 15 16  2  0
 16 17  1  0
 17 18  1  0
 18 19  2  0
 18 20  1  0
 20 21  1  0
 21 22  1  0
 22 23  1  0
 23 24  1  0
 24 25  2  0
 24 26  1  0
 26 27  1  0
 27 28  2  0
 20 29  1  0
  7 30  1  0
 30  2  2  0
 17 12  2  0
 27 21  1  0
 29 16  1  0
  1 31  1  0
  1 32  1  0
  1 33  1  0
  3 34  1  0
  4 35  1  0
  6 36  1  0
  6 37  1  0
  6 38  1  0
 11 39  1  0
 13 40  1  0
 14 41  1  0
 15 42  1  0
 21 43  1  0
 22 44  1  0
 22 45  1  0
 23 46  1  0
 23 47  1  0
 26 48  1  0
 29 49  1  0
 29 50  1  0
 30 51  1  0
M  END
>  <linker>  (45) 
carbamate

>  <mw>  (45) 
407.43

>  <clogp>  (45) 
2.68

>  <tpsa>  (45) 
104.8

>  <cns_mpo_proxy>  (45) 
3.5

>  <qed>  (45) 
0.761

$$$$
GLUE1040
     RDKit          3D

 47 50  0  0  0  0  0  0  0  0999 V2000
   -5.2169   -0.7468    1.0792 C   0  0  0  0  0  0  0  0  0  0  0  0
   -4.9246    0.4958    0.2836 C   0  0  0  0  0  0  0  0  0  0  0  0
   -5.6621    1.6634    0.5330 C   0  0  0  0  0  0  0  0  0  0  0  0
   -5.4231    2.8270   -0.1991 C   0  0  0  0  0  0  0  0  0  0  0  0
   -4.4510    2.8376   -1.1984 C   0  0  0  0  0  0  0  0  0  0  0  0
   -3.7115    1.6840   -1.4709 C   0  0  0  0  0  0  0  0  0  0  0  0
   -2.5479    1.7661   -2.7461 Cl  0  0  0  0  0  0  0  0  0  0  0  0
   -3.9426    0.5160   -0.7299 C   0  0  0  0  0  0  0  0  0  0  0  0
   -3.1684   -0.7157   -1.0106 C   0  0  0  0  0  0  0  0  0  0  0  0
   -3.7597   -1.6845   -1.4689 O   0  0  0  0  0  0  0  0  0  0  0  0
   -1.8389   -0.6294   -0.6588 N   0  0  0  0  0  0  0  0  0  0  0  0
   -0.8448   -1.6172   -0.8087 C   0  0  0  0  0  0  0  0  0  0  0  0
   -1.0535   -2.8765   -1.3750 C   0  0  0  0  0  0  0  0  0  0  0  0
    0.0061   -3.8012   -1.4970 C   0  0  0  0  0  0  0  0  0  0  0  0
    1.2966   -3.4893   -1.0576 C   0  0  0  0  0  0  0  0  0  0  0  0
    1.5042   -2.2456   -0.4927 C   0  0  0  0  0  0  0  0  0  0  0  0
    0.4461   -1.3420   -0.3770 C   0  0  0  0  0  0  0  0  0  0  0  0
    0.9663   -0.1262    0.2591 C   0  0  0  0  0  0  0  0  0  0  0  0
    0.3097    0.8780    0.4686 O   0  0  0  0  0  0  0  0  0  0  0  0
    2.2976   -0.3608    0.5651 N   0  0  0  0  0  0  0  0  0  0  0  0
    3.1967    0.7092    0.9811 C   0  0  0  0  0  0  0  0  0  0  0  0
    4.1893    0.2556    2.0473 C   0  0  0  0  0  0  0  0  0  0  0  0
    5.0284    1.4432    2.4941 C   0  0  0  0  0  0  0  0  0  0  0  0
    5.7205    2.0952    1.3199 C   0  0  0  0  0  0  0  0  0  0  0  0
    6.8424    2.5846    1.4080 O   0  0  0  0  0  0  0  0  0  0  0  0
    5.0216    2.1339    0.1402 N   0  0  0  0  0  0  0  0  0  0  0  0
    3.9736    1.3100   -0.2027 C   0  0  0  0  0  0  0  0  0  0  0  0
    3.7166    1.0929   -1.3843 O   0  0  0  0  0  0  0  0  0  0  0  0
    2.7591   -1.6402    0.0412 C   0  0  0  0  0  0  0  0  0  0  0  0
   -5.8584   -0.5264    1.9393 H   0  0  0  0  0  0  0  0  0  0  0  0
   -4.2928   -1.1817    1.4737 H   0  0  0  0  0  0  0  0  0  0  0  0
   -5.7327   -1.4834    0.4555 H   0  0  0  0  0  0  0  0  0  0  0  0
   -6.4326    1.6732    1.3022 H   0  0  0  0  0  0  0  0  0  0  0  0
   -6.0013    3.7253    0.0054 H   0  0  0  0  0  0  0  0  0  0  0  0
   -4.2799    3.7480   -1.7682 H   0  0  0  0  0  0  0  0  0  0  0  0
   -1.5110    0.2530   -0.2607 H   0  0  0  0  0  0  0  0  0  0  0  0
   -2.0313   -3.1747   -1.7435 H   0  0  0  0  0  0  0  0  0  0  0  0
   -0.1908   -4.7718   -1.9493 H   0  0  0  0  0  0  0  0  0  0  0  0
    2.1040   -4.2067   -1.1658 H   0  0  0  0  0  0  0  0  0  0  0  0
    2.5782    1.5229    1.3824 H   0  0  0  0  0  0  0  0  0  0  0  0
    3.6604   -0.1713    2.9072 H   0  0  0  0  0  0  0  0  0  0  0  0
    4.8484   -0.5270    1.6500 H   0  0  0  0  0  0  0  0  0  0  0  0
    4.4104    2.1992    2.9910 H   0  0  0  0  0  0  0  0  0  0  0  0
    5.7901    1.1044    3.2046 H   0  0  0  0  0  0  0  0  0  0  0  0
    5.5373    2.5117   -0.6439 H   0  0  0  0  0  0  0  0  0  0  0  0
    3.4892   -1.4805   -0.7565 H   0  0  0  0  0  0  0  0  0  0  0  0
    3.1830   -2.2316    0.8572 H   0  0  0  0  0  0  0  0  0  0  0  0
  1  2  1  0
  2  3  2  0
  3  4  1  0
  4  5  2  0
  5  6  1  0
  6  7  1  0
  6  8  2  0
  8  9  1  0
  9 10  2  0
  9 11  1  0
 11 12  1  0
 12 13  1  0
 13 14  2  0
 14 15  1  0
 15 16  2  0
 16 17  1  0
 17 18  1  0
 18 19  2  0
 18 20  1  0
 20 21  1  0
 21 22  1  0
 22 23  1  0
 23 24  1  0
 24 25  2  0
 24 26  1  0
 26 27  1  0
 27 28  2  0
 20 29  1  0
  8  2  1  0
 17 12  2  0
 27 21  1  0
 29 16  1  0
  1 30  1  0
  1 31  1  0
  1 32  1  0
  3 33  1  0
  4 34  1  0
  5 35  1  0
 11 36  1  0
 13 37  1  0
 14 38  1  0
 15 39  1  0
 21 40  1  0
 22 41  1  0
 22 42  1  0
 23 43  1  0
 23 44  1  0
 26 45  1  0
 29 46  1  0
 29 47  1  0
M  END
>  <linker>  (46) 
amide

>  <mw>  (46) 
411.85

>  <clogp>  (46) 
2.66

>  <tpsa>  (46) 
95.6

>  <cns_mpo_proxy>  (46) 
3.5

>  <qed>  (46) 
0.759

$$$$
GLUE0061
     RDKit          3D

 47 50  0  0  0  0  0  0  0  0999 V2000
   -7.4410    1.7751   -1.4017 O   0  0  0  0  0  0  0  0  0  0  0  0
   -6.2580    1.5064   -1.2164 C   0  0  0  0  0  0  0  0  0  0  0  0
   -5.3392    1.0828   -2.3376 C   0  0  0  0  0  0  0  0  0  0  0  0
   -4.3566    0.0226   -1.8629 C   0  0  0  0  0  0  0  0  0  0  0  0
   -3.5681    0.5620   -0.6731 C   0  0  0  0  0  0  0  0  0  0  0  0
   -2.5499   -0.3771   -0.2136 N   0  0  0  0  0  0  0  0  0  0  0  0
   -2.8499   -1.7264    0.2526 C   0  0  0  0  0  0  0  0  0  0  0  0
   -1.5558   -2.1604    0.8519 C   0  0  0  0  0  0  0  0  0  0  0  0
   -1.2053   -3.3717    1.4163 C   0  0  0  0  0  0  0  0  0  0  0  0
    0.0916   -3.5081    1.9206 C   0  0  0  0  0  0  0  0  0  0  0  0
    1.0170   -2.4441    1.8620 C   0  0  0  0  0  0  0  0  0  0  0  0
    0.6638   -1.2165    1.2989 C   0  0  0  0  0  0  0  0  0  0  0  0
    1.5167   -0.0971    1.1975 N   0  0  0  0  0  0  0  0  0  0  0  0
    2.8140    0.0242    1.6637 C   0  0  0  0  0  0  0  0  0  0  0  0
    3.4381   -0.8347    2.2822 O   0  0  0  0  0  0  0  0  0  0  0  0
    3.4360    1.3797    1.3476 C   0  0  0  0  0  0  0  0  0  0  0  0
    4.6859    1.2558    0.5071 C   0  0  0  0  0  0  0  0  0  0  0  0
    5.9402    1.0971    1.1199 C   0  0  0  0  0  0  0  0  0  0  0  0
    7.0970    0.9647    0.3449 C   0  0  0  0  0  0  0  0  0  0  0  0
    7.0039    0.9835   -1.0464 C   0  0  0  0  0  0  0  0  0  0  0  0
    8.4279    0.8190   -2.0020 Cl  0  0  0  0  0  0  0  0  0  0  0  0
    5.7642    1.1285   -1.6692 C   0  0  0  0  0  0  0  0  0  0  0  0
    4.6063    1.2608   -0.8944 C   0  0  0  0  0  0  0  0  0  0  0  0
   -0.6301   -1.1176    0.8027 C   0  0  0  0  0  0  0  0  0  0  0  0
   -1.2817    0.0290    0.1600 C   0  0  0  0  0  0  0  0  0  0  0  0
   -0.7561    1.1156    0.0007 O   0  0  0  0  0  0  0  0  0  0  0  0
   -4.5448    0.9596    0.4476 C   0  0  0  0  0  0  0  0  0  0  0  0
   -4.3491    0.7488    1.6431 O   0  0  0  0  0  0  0  0  0  0  0  0
   -5.6963    1.5909    0.0330 N   0  0  0  0  0  0  0  0  0  0  0  0
   -4.8149    1.9704   -2.7081 H   0  0  0  0  0  0  0  0  0  0  0  0
   -5.9454    0.6812   -3.1561 H   0  0  0  0  0  0  0  0  0  0  0  0
   -3.6785   -0.2518   -2.6783 H   0  0  0  0  0  0  0  0  0  0  0  0
   -4.9071   -0.8827   -1.5794 H   0  0  0  0  0  0  0  0  0  0  0  0
   -3.0560    1.4869   -0.9689 H   0  0  0  0  0  0  0  0  0  0  0  0
   -3.1305   -2.3468   -0.6004 H   0  0  0  0  0  0  0  0  0  0  0  0
   -3.6405   -1.7000    1.0032 H   0  0  0  0  0  0  0  0  0  0  0  0
   -1.9076   -4.1969    1.4735 H   0  0  0  0  0  0  0  0  0  0  0  0
    0.3998   -4.4505    2.3709 H   0  0  0  0  0  0  0  0  0  0  0  0
    2.0099   -2.6165    2.2690 H   0  0  0  0  0  0  0  0  0  0  0  0
    1.0916    0.7167    0.7501 H   0  0  0  0  0  0  0  0  0  0  0  0
    3.6662    1.8741    2.3056 H   0  0  0  0  0  0  0  0  0  0  0  0
    2.7192    2.0401    0.8387 H   0  0  0  0  0  0  0  0  0  0  0  0
    6.0195    1.0637    2.2072 H   0  0  0  0  0  0  0  0  0  0  0  0
    8.0626    0.8389    0.8313 H   0  0  0  0  0  0  0  0  0  0  0  0
    5.6921    1.1342   -2.7511 H   0  0  0  0  0  0  0  0  0  0  0  0
    3.6442    1.3650   -1.3927 H   0  0  0  0  0  0  0  0  0  0  0  0
   -6.3453    1.8212    0.7733 H   0  0  0  0  0  0  0  0  0  0  0  0
  1  2  2  0
  2  3  1  0
  3  4  1  0
  4  5  1  0
  5  6  1  0
  6  7  1  0
  7  8  1  0
  8  9  2  0
  9 10  1  0
 10 11  2  0
 11 12  1  0
 12 13  1  0
 13 14  1  0
 14 15  2  0
 14 16  1  0
 16 17  1  0
 17 18  1  0
 18 19  2  0
 19 20  1  0
 20 21  1  0
 20 22  2  0
 22 23  1  0
 12 24  2  0
 24 25  1  0
 25 26  2  0
  5 27  1  0
 27 28  2  0
 27 29  1  0
 29  2  1  0
 25  6  1  0
 24  8  1  0
 23 17  2  0
  3 30  1  0
  3 31  1  0
  4 32  1  0
  4 33  1  0
  5 34  1  0
  7 35  1  0
  7 36  1  0
  9 37  1  0
 10 38  1  0
 11 39  1  0
 13 40  1  0
 16 41  1  0
 16 42  1  0
 18 43  1  0
 19 44  1  0
 22 45  1  0
 23 46  1  0
 29 47  1  0
M  END
>  <linker>  (47) 
acetamide

>  <mw>  (47) 
411.85

>  <clogp>  (47) 
2.28

>  <tpsa>  (47) 
95.6

>  <cns_mpo_proxy>  (47) 
3.5

>  <qed>  (47) 
0.754

$$$$
GLUE0125
     RDKit          3D

 47 50  0  0  0  0  0  0  0  0999 V2000
   -7.1478    2.5890   -1.0948 O   0  0  0  0  0  0  0  0  0  0  0  0
   -6.0036    2.1623   -0.9742 C   0  0  0  0  0  0  0  0  0  0  0  0
   -5.1201    1.8682   -2.1635 C   0  0  0  0  0  0  0  0  0  0  0  0
   -4.2340    0.6596   -1.9036 C   0  0  0  0  0  0  0  0  0  0  0  0
   -3.4192    0.8941   -0.6353 C   0  0  0  0  0  0  0  0  0  0  0  0
   -2.4798   -0.1883   -0.3666 N   0  0  0  0  0  0  0  0  0  0  0  0
   -2.8742   -1.5857   -0.2372 C   0  0  0  0  0  0  0  0  0  0  0  0
   -1.6374   -2.2253    0.3022 C   0  0  0  0  0  0  0  0  0  0  0  0
   -1.3806   -3.5540    0.5809 C   0  0  0  0  0  0  0  0  0  0  0  0
   -0.1241   -3.8827    1.1006 C   0  0  0  0  0  0  0  0  0  0  0  0
    0.8537   -2.8923    1.3386 C   0  0  0  0  0  0  0  0  0  0  0  0
    0.5960   -1.5484    1.0594 C   0  0  0  0  0  0  0  0  0  0  0  0
    1.5081   -0.4918    1.2594 N   0  0  0  0  0  0  0  0  0  0  0  0
    2.7930   -0.5636    1.7597 C   0  0  0  0  0  0  0  0  0  0  0  0
    3.3653   -1.5846    2.1328 O   0  0  0  0  0  0  0  0  0  0  0  0
    3.4826    0.7921    1.8296 C   0  0  0  0  0  0  0  0  0  0  0  0
    4.6684    0.8844    0.8985 C   0  0  0  0  0  0  0  0  0  0  0  0
    5.9524    0.6069    1.4023 C   0  0  0  0  0  0  0  0  0  0  0  0
    7.0759    0.6674    0.5758 C   0  0  0  0  0  0  0  0  0  0  0  0
    6.9341    1.0002   -0.7696 C   0  0  0  0  0  0  0  0  0  0  0  0
    5.6664    1.2626   -1.2899 C   0  0  0  0  0  0  0  0  0  0  0  0
    4.5390    1.2009   -0.4640 C   0  0  0  0  0  0  0  0  0  0  0  0
    3.0017    1.5247   -1.1828 Cl  0  0  0  0  0  0  0  0  0  0  0  0
   -0.6596   -1.2578    0.5413 C   0  0  0  0  0  0  0  0  0  0  0  0
   -1.2187    0.0442    0.1574 C   0  0  0  0  0  0  0  0  0  0  0  0
   -0.6416    1.1075    0.2952 O   0  0  0  0  0  0  0  0  0  0  0  0
   -4.3801    1.1328    0.5411 C   0  0  0  0  0  0  0  0  0  0  0  0
   -4.2403    0.6489    1.6620 O   0  0  0  0  0  0  0  0  0  0  0  0
   -5.4550    1.9461    0.2647 N   0  0  0  0  0  0  0  0  0  0  0  0
   -4.5199    2.7603   -2.3737 H   0  0  0  0  0  0  0  0  0  0  0  0
   -5.7570    1.6726   -3.0333 H   0  0  0  0  0  0  0  0  0  0  0  0
   -3.5709    0.4921   -2.7595 H   0  0  0  0  0  0  0  0  0  0  0  0
   -4.8597   -0.2359   -1.7980 H   0  0  0  0  0  0  0  0  0  0  0  0
   -2.8364    1.8183   -0.7431 H   0  0  0  0  0  0  0  0  0  0  0  0
   -3.7053   -1.6794    0.4659 H   0  0  0  0  0  0  0  0  0  0  0  0
   -3.1378   -1.9775   -1.2234 H   0  0  0  0  0  0  0  0  0  0  0  0
   -2.1249   -4.3250    0.4082 H   0  0  0  0  0  0  0  0  0  0  0  0
    0.1106   -4.9210    1.3298 H   0  0  0  0  0  0  0  0  0  0  0  0
    1.8100   -3.2136    1.7419 H   0  0  0  0  0  0  0  0  0  0  0  0
    1.1626    0.4270    0.9732 H   0  0  0  0  0  0  0  0  0  0  0  0
    3.8011    0.9407    2.8704 H   0  0  0  0  0  0  0  0  0  0  0  0
    2.7817    1.6131    1.6361 H   0  0  0  0  0  0  0  0  0  0  0  0
    6.0839    0.3258    2.4460 H   0  0  0  0  0  0  0  0  0  0  0  0
    8.0616    0.4459    0.9824 H   0  0  0  0  0  0  0  0  0  0  0  0
    7.8086    1.0437   -1.4136 H   0  0  0  0  0  0  0  0  0  0  0  0
    5.5622    1.5107   -2.3448 H   0  0  0  0  0  0  0  0  0  0  0  0
   -6.0912    2.0851    1.0383 H   0  0  0  0  0  0  0  0  0  0  0  0
  1  2  2  0
  2  3  1  0
  3  4  1  0
  4  5  1  0
  5  6  1  0
  6  7  1  0
  7  8  1  0
  8  9  2  0
  9 10  1  0
 10 11  2  0
 11 12  1  0
 12 13  1  0
 13 14  1  0
 14 15  2  0
 14 16  1  0
 16 17  1  0
 17 18  2  0
 18 19  1  0
 19 20  2  0
 20 21  1  0
 21 22  2  0
 22 23  1  0
 12 24  2  0
 24 25  1  0
 25 26  2  0
  5 27  1  0
 27 28  2  0
 27 29  1  0
 29  2  1  0
 25  6  1  0
 24  8  1  0
 22 17  1  0
  3 30  1  0
  3 31  1  0
  4 32  1  0
  4 33  1  0
  5 34  1  0
  7 35  1  0
  7 36  1  0
  9 37  1  0
 10 38  1  0
 11 39  1  0
 13 40  1  0
 16 41  1  0
 16 42  1  0
 18 43  1  0
 19 44  1  0
 20 45  1  0
 21 46  1  0
 29 47  1  0
M  END
>  <linker>  (48) 
acetamide

>  <mw>  (48) 
411.85

>  <clogp>  (48) 
2.28

>  <tpsa>  (48) 
95.6

>  <cns_mpo_proxy>  (48) 
3.5

>  <qed>  (48) 
0.754

$$$$
GLUE0337
     RDKit          3D

 47 50  0  0  0  0  0  0  0  0999 V2000
   -6.9441   -2.6293    0.8586 O   0  0  0  0  0  0  0  0  0  0  0  0
   -5.7944   -2.2192    0.7257 C   0  0  0  0  0  0  0  0  0  0  0  0
   -4.6834   -3.0837    0.1752 C   0  0  0  0  0  0  0  0  0  0  0  0
   -3.7419   -2.2643   -0.6971 C   0  0  0  0  0  0  0  0  0  0  0  0
   -3.1877   -1.0962    0.1149 C   0  0  0  0  0  0  0  0  0  0  0  0
   -2.2183   -0.3078   -0.6356 N   0  0  0  0  0  0  0  0  0  0  0  0
   -2.5199    0.3478   -1.9032 C   0  0  0  0  0  0  0  0  0  0  0  0
   -1.3342    1.2344   -2.1035 C   0  0  0  0  0  0  0  0  0  0  0  0
   -1.0198    2.0678   -3.1605 C   0  0  0  0  0  0  0  0  0  0  0  0
    0.1638    2.8096   -3.0815 C   0  0  0  0  0  0  0  0  0  0  0  0
    1.0127    2.7199   -1.9574 C   0  0  0  0  0  0  0  0  0  0  0  0
    0.6946    1.8809   -0.8873 C   0  0  0  0  0  0  0  0  0  0  0  0
    1.4756    1.7189    0.2734 N   0  0  0  0  0  0  0  0  0  0  0  0
    2.6655    2.3434    0.5915 C   0  0  0  0  0  0  0  0  0  0  0  0
    3.2389    3.1975   -0.0794 O   0  0  0  0  0  0  0  0  0  0  0  0
    3.2554    1.8466    1.9036 C   0  0  0  0  0  0  0  0  0  0  0  0
    4.2602    0.7402    1.6899 C   0  0  0  0  0  0  0  0  0  0  0  0
    5.6112    1.0502    1.4807 C   0  0  0  0  0  0  0  0  0  0  0  0
    6.5439    0.0364    1.2576 C   0  0  0  0  0  0  0  0  0  0  0  0
    6.1345   -1.2964    1.2310 C   0  0  0  0  0  0  0  0  0  0  0  0
    4.7918   -1.6107    1.4282 C   0  0  0  0  0  0  0  0  0  0  0  0
    4.2824   -3.2581    1.3866 Cl  0  0  0  0  0  0  0  0  0  0  0  0
    3.8547   -0.6027    1.6571 C   0  0  0  0  0  0  0  0  0  0  0  0
   -0.4832    1.1533   -1.0017 C   0  0  0  0  0  0  0  0  0  0  0  0
   -1.0693    0.2008   -0.0518 C   0  0  0  0  0  0  0  0  0  0  0  0
   -0.5890   -0.0641    1.0363 O   0  0  0  0  0  0  0  0  0  0  0  0
   -4.3546   -0.2377    0.6355 C   0  0  0  0  0  0  0  0  0  0  0  0
   -4.3516    0.9910    0.6632 O   0  0  0  0  0  0  0  0  0  0  0  0
   -5.4489   -0.9393    1.0903 N   0  0  0  0  0  0  0  0  0  0  0  0
   -4.1459   -3.5346    1.0178 H   0  0  0  0  0  0  0  0  0  0  0  0
   -5.1265   -3.8908   -0.4169 H   0  0  0  0  0  0  0  0  0  0  0  0
   -2.9250   -2.9004   -1.0604 H   0  0  0  0  0  0  0  0  0  0  0  0
   -4.2867   -1.8962   -1.5767 H   0  0  0  0  0  0  0  0  0  0  0  0
   -2.6779   -1.4854    1.0068 H   0  0  0  0  0  0  0  0  0  0  0  0
   -3.4394    0.9336   -1.8167 H   0  0  0  0  0  0  0  0  0  0  0  0
   -2.6001   -0.4094   -2.6885 H   0  0  0  0  0  0  0  0  0  0  0  0
   -1.6661    2.1539   -4.0278 H   0  0  0  0  0  0  0  0  0  0  0  0
    0.4405    3.4748   -3.8990 H   0  0  0  0  0  0  0  0  0  0  0  0
    1.9171    3.3241   -1.9558 H   0  0  0  0  0  0  0  0  0  0  0  0
    1.0978    1.0519    0.9487 H   0  0  0  0  0  0  0  0  0  0  0  0
    3.7267    2.6985    2.4091 H   0  0  0  0  0  0  0  0  0  0  0  0
    2.4613    1.5070    2.5778 H   0  0  0  0  0  0  0  0  0  0  0  0
    5.9430    2.0887    1.4810 H   0  0  0  0  0  0  0  0  0  0  0  0
    7.5893    0.2913    1.0990 H   0  0  0  0  0  0  0  0  0  0  0  0
    6.8594   -2.0821    1.0525 H   0  0  0  0  0  0  0  0  0  0  0  0
    2.8104   -0.8669    1.8061 H   0  0  0  0  0  0  0  0  0  0  0  0
   -6.2228   -0.3644    1.4027 H   0  0  0  0  0  0  0  0  0  0  0  0
  1  2  2  0
  2  3  1  0
  3  4  1  0
  4  5  1  0
  5  6  1  0
  6  7  1  0
  7  8  1  0
  8  9  2  0
  9 10  1  0
 10 11  2  0
 11 12  1  0
 12 13  1  0
 13 14  1  0
 14 15  2  0
 14 16  1  0
 16 17  1  0
 17 18  2  0
 18 19  1  0
 19 20  2  0
 20 21  1  0
 21 22  1  0
 21 23  2  0
 12 24  2  0
 24 25  1  0
 25 26  2  0
  5 27  1  0
 27 28  2  0
 27 29  1  0
 29  2  1  0
 25  6  1  0
 24  8  1  0
 23 17  1  0
  3 30  1  0
  3 31  1  0
  4 32  1  0
  4 33  1  0
  5 34  1  0
  7 35  1  0
  7 36  1  0
  9 37  1  0
 10 38  1  0
 11 39  1  0
 13 40  1  0
 16 41  1  0
 16 42  1  0
 18 43  1  0
 19 44  1  0
 20 45  1  0
 23 46  1  0
 29 47  1  0
M  END
>  <linker>  (49) 
acetamide

>  <mw>  (49) 
411.85

>  <clogp>  (49) 
2.28

>  <tpsa>  (49) 
95.6

>  <cns_mpo_proxy>  (49) 
3.5

>  <qed>  (49) 
0.754

$$$$
GLUE0063
     RDKit          3D

 45 48  0  0  0  0  0  0  0  0999 V2000
   -7.4281    2.1627   -0.1971 O   0  0  0  0  0  0  0  0  0  0  0  0
   -6.2636    1.8432    0.0214 C   0  0  0  0  0  0  0  0  0  0  0  0
   -5.6863    1.7952    1.4168 C   0  0  0  0  0  0  0  0  0  0  0  0
   -4.6843    0.6593    1.5578 C   0  0  0  0  0  0  0  0  0  0  0  0
   -3.5976    0.8078    0.4974 C   0  0  0  0  0  0  0  0  0  0  0  0
   -2.5538   -0.2034    0.6215 N   0  0  0  0  0  0  0  0  0  0  0  0
   -2.8195   -1.6364    0.6145 C   0  0  0  0  0  0  0  0  0  0  0  0
   -1.4547   -2.2201    0.4607 C   0  0  0  0  0  0  0  0  0  0  0  0
   -1.0588   -3.5437    0.4496 C   0  0  0  0  0  0  0  0  0  0  0  0
    0.3003   -3.8187    0.2683 C   0  0  0  0  0  0  0  0  0  0  0  0
    1.2420   -2.7812    0.0958 C   0  0  0  0  0  0  0  0  0  0  0  0
    0.8431   -1.4424    0.1019 C   0  0  0  0  0  0  0  0  0  0  0  0
    1.7098   -0.3486   -0.0707 N   0  0  0  0  0  0  0  0  0  0  0  0
    3.0646   -0.3563   -0.2652 C   0  0  0  0  0  0  0  0  0  0  0  0
    3.7938   -1.3375   -0.3149 O   0  0  0  0  0  0  0  0  0  0  0  0
    3.4927    0.9604   -0.3975 O   0  0  0  0  0  0  0  0  0  0  0  0
    4.8673    1.0858   -0.6082 C   0  0  0  0  0  0  0  0  0  0  0  0
    5.3587    1.0955   -1.9130 C   0  0  0  0  0  0  0  0  0  0  0  0
    6.7276    1.2658   -2.1219 C   0  0  0  0  0  0  0  0  0  0  0  0
    7.5797    1.4366   -1.0287 C   0  0  0  0  0  0  0  0  0  0  0  0
    9.2677    1.6492   -1.2897 Cl  0  0  0  0  0  0  0  0  0  0  0  0
    7.0759    1.4436    0.2739 C   0  0  0  0  0  0  0  0  0  0  0  0
    5.7077    1.2737    0.4882 C   0  0  0  0  0  0  0  0  0  0  0  0
   -0.5121   -1.2041    0.2912 C   0  0  0  0  0  0  0  0  0  0  0  0
   -1.2241    0.0773    0.3499 C   0  0  0  0  0  0  0  0  0  0  0  0
   -0.6994    1.1640    0.1869 O   0  0  0  0  0  0  0  0  0  0  0  0
   -4.2508    0.7962   -0.8952 C   0  0  0  0  0  0  0  0  0  0  0  0
   -3.8056    0.1874   -1.8653 O   0  0  0  0  0  0  0  0  0  0  0  0
   -5.4112    1.5280   -1.0062 N   0  0  0  0  0  0  0  0  0  0  0  0
   -6.5054    1.6491    2.1291 H   0  0  0  0  0  0  0  0  0  0  0  0
   -5.2187    2.7632    1.6281 H   0  0  0  0  0  0  0  0  0  0  0  0
   -4.2449    0.6724    2.5619 H   0  0  0  0  0  0  0  0  0  0  0  0
   -5.2041   -0.3007    1.4432 H   0  0  0  0  0  0  0  0  0  0  0  0
   -3.1192    1.7907    0.6006 H   0  0  0  0  0  0  0  0  0  0  0  0
   -3.2818   -1.9215    1.5633 H   0  0  0  0  0  0  0  0  0  0  0  0
   -3.4569   -1.8979   -0.2342 H   0  0  0  0  0  0  0  0  0  0  0  0
   -1.7731   -4.3519    0.5727 H   0  0  0  0  0  0  0  0  0  0  0  0
    0.6444   -4.8517    0.2538 H   0  0  0  0  0  0  0  0  0  0  0  0
    2.2822   -3.0629   -0.0455 H   0  0  0  0  0  0  0  0  0  0  0  0
    1.2825    0.5769   -0.0614 H   0  0  0  0  0  0  0  0  0  0  0  0
    4.6873    0.9658   -2.7565 H   0  0  0  0  0  0  0  0  0  0  0  0
    7.1232    1.2648   -3.1338 H   0  0  0  0  0  0  0  0  0  0  0  0
    7.7420    1.5809    1.1212 H   0  0  0  0  0  0  0  0  0  0  0  0
    5.3056    1.2817    1.4967 H   0  0  0  0  0  0  0  0  0  0  0  0
   -5.8439    1.5017   -1.9204 H   0  0  0  0  0  0  0  0  0  0  0  0
  1  2  2  0
  2  3  1  0
  3  4  1  0
  4  5  1  0
  5  6  1  0
  6  7  1  0
  7  8  1  0
  8  9  2  0
  9 10  1  0
 10 11  2  0
 11 12  1  0
 12 13  1  0
 13 14  1  0
 14 15  2  0
 14 16  1  0
 16 17  1  0
 17 18  1  0
 18 19  2  0
 19 20  1  0
 20 21  1  0
 20 22  2  0
 22 23  1  0
 12 24  2  0
 24 25  1  0
 25 26  2  0
  5 27  1  0
 27 28  2  0
 27 29  1  0
 29  2  1  0
 25  6  1  0
 24  8  1  0
 23 17  2  0
  3 30  1  0
  3 31  1  0
  4 32  1  0
  4 33  1  0
  5 34  1  0
  7 35  1  0
  7 36  1  0
  9 37  1  0
 10 38  1  0
 11 39  1  0
 13 40  1  0
 18 41  1  0
 19 42  1  0
 22 43  1  0
 23 44  1  0
 29 45  1  0
M  END
>  <linker>  (50) 
carbamate

>  <mw>  (50) 
413.82

>  <clogp>  (50) 
2.71

>  <tpsa>  (50) 
104.8

>  <cns_mpo_proxy>  (50) 
3.5

>  <qed>  (50) 
0.753

$$$$
